# HOB package for MODFLOW-2005 generated by Flopy 3.5.0
       240         0         0         0     -9999
         1
obs1                    1         32          5        -48                  0.0     0.2761    -0.4765     0.0000   # DATASET 3 - Observation 1
         1                                                                                                         # DATASET 5 - Observation 1
obs1_1                  2                  0.0     0.0000                                                          # DATASET 6 - Observation 1.1
obs1_2                  3                  0.0     0.0000                                                          # DATASET 6 - Observation 1.2
obs1_3                  4                  0.0     0.0000                                                          # DATASET 6 - Observation 1.3
obs1_4                  5                  0.0     0.0000                                                          # DATASET 6 - Observation 1.4
obs1_5                  6                  0.0     0.0000                                                          # DATASET 6 - Observation 1.5
obs1_6                  7                  0.0     0.0000                                                          # DATASET 6 - Observation 1.6
obs1_7                  8                  0.0     0.0000                                                          # DATASET 6 - Observation 1.7
obs1_8                  9                  0.0     0.0000                                                          # DATASET 6 - Observation 1.8
obs1_9                 10                  0.0     0.0000                                                          # DATASET 6 - Observation 1.9
obs1_10                11                  0.0     0.0000                                                          # DATASET 6 - Observation 1.10
obs1_11                12                  0.0     0.0000                                                          # DATASET 6 - Observation 1.11
obs1_12                13                  0.0     0.0000                                                          # DATASET 6 - Observation 1.12
obs1_13                14                  0.0     0.0000                                                          # DATASET 6 - Observation 1.13
obs1_14                15                  0.0     0.0000                                                          # DATASET 6 - Observation 1.14
obs1_15                16                  0.0     0.0000                                                          # DATASET 6 - Observation 1.15
obs1_16                17                  0.0     0.0000                                                          # DATASET 6 - Observation 1.16
obs1_17                18                  0.0     0.0000                                                          # DATASET 6 - Observation 1.17
obs1_18                19                  0.0     0.0000                                                          # DATASET 6 - Observation 1.18
obs1_19                20                  0.0     0.0000                                                          # DATASET 6 - Observation 1.19
obs1_20                21                  0.0     0.0000                                                          # DATASET 6 - Observation 1.20
obs1_21                22                  0.0     0.0000                                                          # DATASET 6 - Observation 1.21
obs1_22                23                  0.0     0.0000                                                          # DATASET 6 - Observation 1.22
obs1_23                24                  0.0     0.0000                                                          # DATASET 6 - Observation 1.23
obs1_24                25                  0.0     0.0000                                                          # DATASET 6 - Observation 1.24
obs1_25                26                  0.0     0.0000                                                          # DATASET 6 - Observation 1.25
obs1_26                27                  0.0     0.0000                                                          # DATASET 6 - Observation 1.26
obs1_27                28                  0.0     0.0000                                                          # DATASET 6 - Observation 1.27
obs1_28                29                  0.0     0.0000                                                          # DATASET 6 - Observation 1.28
obs1_29                30                  0.0     0.0000                                                          # DATASET 6 - Observation 1.29
obs1_30                31                  0.0     0.0000                                                          # DATASET 6 - Observation 1.30
obs1_31                32                  0.0     0.0000                                                          # DATASET 6 - Observation 1.31
obs1_32                33                  0.0     0.0000                                                          # DATASET 6 - Observation 1.32
obs1_33                34                  0.0     0.0000                                                          # DATASET 6 - Observation 1.33
obs1_34                35                  0.0     0.0000                                                          # DATASET 6 - Observation 1.34
obs1_35                36                  0.0     0.0000                                                          # DATASET 6 - Observation 1.35
obs1_36                37                  0.0     0.0000                                                          # DATASET 6 - Observation 1.36
obs1_37                38                  0.0     0.0000                                                          # DATASET 6 - Observation 1.37
obs1_38                39                  0.0     0.0000                                                          # DATASET 6 - Observation 1.38
obs1_39                40                  0.0     0.0000                                                          # DATASET 6 - Observation 1.39
obs1_40                41                  0.0     0.0000                                                          # DATASET 6 - Observation 1.40
obs1_41                42                  0.0     0.0000                                                          # DATASET 6 - Observation 1.41
obs1_42                43                  0.0     0.0000                                                          # DATASET 6 - Observation 1.42
obs1_43                44                  0.0     0.0000                                                          # DATASET 6 - Observation 1.43
obs1_44                45                  0.0     0.0000                                                          # DATASET 6 - Observation 1.44
obs1_45                46                  0.0     0.0000                                                          # DATASET 6 - Observation 1.45
obs1_46                47                  0.0     0.0000                                                          # DATASET 6 - Observation 1.46
obs1_47                48                  0.0     0.0000                                                          # DATASET 6 - Observation 1.47
obs1_48                48               3600.0     0.0000                                                          # DATASET 6 - Observation 1.48
obs2                    1         20          9        -48                  0.0    -0.4016    -0.2453     0.0000   # DATASET 3 - Observation 2
         1                                                                                                         # DATASET 5 - Observation 2
obs2_1                  2                  0.0     0.0000                                                          # DATASET 6 - Observation 2.1
obs2_2                  3                  0.0     0.0000                                                          # DATASET 6 - Observation 2.2
obs2_3                  4                  0.0     0.0000                                                          # DATASET 6 - Observation 2.3
obs2_4                  5                  0.0     0.0000                                                          # DATASET 6 - Observation 2.4
obs2_5                  6                  0.0     0.0000                                                          # DATASET 6 - Observation 2.5
obs2_6                  7                  0.0     0.0000                                                          # DATASET 6 - Observation 2.6
obs2_7                  8                  0.0     0.0000                                                          # DATASET 6 - Observation 2.7
obs2_8                  9                  0.0     0.0000                                                          # DATASET 6 - Observation 2.8
obs2_9                 10                  0.0     0.0000                                                          # DATASET 6 - Observation 2.9
obs2_10                11                  0.0     0.0000                                                          # DATASET 6 - Observation 2.10
obs2_11                12                  0.0     0.0000                                                          # DATASET 6 - Observation 2.11
obs2_12                13                  0.0     0.0000                                                          # DATASET 6 - Observation 2.12
obs2_13                14                  0.0     0.0000                                                          # DATASET 6 - Observation 2.13
obs2_14                15                  0.0     0.0000                                                          # DATASET 6 - Observation 2.14
obs2_15                16                  0.0     0.0000                                                          # DATASET 6 - Observation 2.15
obs2_16                17                  0.0     0.0000                                                          # DATASET 6 - Observation 2.16
obs2_17                18                  0.0     0.0000                                                          # DATASET 6 - Observation 2.17
obs2_18                19                  0.0     0.0000                                                          # DATASET 6 - Observation 2.18
obs2_19                20                  0.0     0.0000                                                          # DATASET 6 - Observation 2.19
obs2_20                21                  0.0     0.0000                                                          # DATASET 6 - Observation 2.20
obs2_21                22                  0.0     0.0000                                                          # DATASET 6 - Observation 2.21
obs2_22                23                  0.0     0.0000                                                          # DATASET 6 - Observation 2.22
obs2_23                24                  0.0     0.0000                                                          # DATASET 6 - Observation 2.23
obs2_24                25                  0.0     0.0000                                                          # DATASET 6 - Observation 2.24
obs2_25                26                  0.0     0.0000                                                          # DATASET 6 - Observation 2.25
obs2_26                27                  0.0     0.0000                                                          # DATASET 6 - Observation 2.26
obs2_27                28                  0.0     0.0000                                                          # DATASET 6 - Observation 2.27
obs2_28                29                  0.0     0.0000                                                          # DATASET 6 - Observation 2.28
obs2_29                30                  0.0     0.0000                                                          # DATASET 6 - Observation 2.29
obs2_30                31                  0.0     0.0000                                                          # DATASET 6 - Observation 2.30
obs2_31                32                  0.0     0.0000                                                          # DATASET 6 - Observation 2.31
obs2_32                33                  0.0     0.0000                                                          # DATASET 6 - Observation 2.32
obs2_33                34                  0.0     0.0000                                                          # DATASET 6 - Observation 2.33
obs2_34                35                  0.0     0.0000                                                          # DATASET 6 - Observation 2.34
obs2_35                36                  0.0     0.0000                                                          # DATASET 6 - Observation 2.35
obs2_36                37                  0.0     0.0000                                                          # DATASET 6 - Observation 2.36
obs2_37                38                  0.0     0.0000                                                          # DATASET 6 - Observation 2.37
obs2_38                39                  0.0     0.0000                                                          # DATASET 6 - Observation 2.38
obs2_39                40                  0.0     0.0000                                                          # DATASET 6 - Observation 2.39
obs2_40                41                  0.0     0.0000                                                          # DATASET 6 - Observation 2.40
obs2_41                42                  0.0     0.0000                                                          # DATASET 6 - Observation 2.41
obs2_42                43                  0.0     0.0000                                                          # DATASET 6 - Observation 2.42
obs2_43                44                  0.0     0.0000                                                          # DATASET 6 - Observation 2.43
obs2_44                45                  0.0     0.0000                                                          # DATASET 6 - Observation 2.44
obs2_45                46                  0.0     0.0000                                                          # DATASET 6 - Observation 2.45
obs2_46                47                  0.0     0.0000                                                          # DATASET 6 - Observation 2.46
obs2_47                48                  0.0     0.0000                                                          # DATASET 6 - Observation 2.47
obs2_48                48               3600.0     0.0000                                                          # DATASET 6 - Observation 2.48
obs3                    1         17         18        -48                  0.0     0.2129    -0.1147     0.0000   # DATASET 3 - Observation 3
         1                                                                                                         # DATASET 5 - Observation 3
obs3_1                  2                  0.0     0.0000                                                          # DATASET 6 - Observation 3.1
obs3_2                  3                  0.0     0.0000                                                          # DATASET 6 - Observation 3.2
obs3_3                  4                  0.0     0.0000                                                          # DATASET 6 - Observation 3.3
obs3_4                  5                  0.0     0.0000                                                          # DATASET 6 - Observation 3.4
obs3_5                  6                  0.0     0.0000                                                          # DATASET 6 - Observation 3.5
obs3_6                  7                  0.0     0.0000                                                          # DATASET 6 - Observation 3.6
obs3_7                  8                  0.0     0.0000                                                          # DATASET 6 - Observation 3.7
obs3_8                  9                  0.0     0.0000                                                          # DATASET 6 - Observation 3.8
obs3_9                 10                  0.0     0.0000                                                          # DATASET 6 - Observation 3.9
obs3_10                11                  0.0     0.0000                                                          # DATASET 6 - Observation 3.10
obs3_11                12                  0.0     0.0000                                                          # DATASET 6 - Observation 3.11
obs3_12                13                  0.0     0.0000                                                          # DATASET 6 - Observation 3.12
obs3_13                14                  0.0     0.0000                                                          # DATASET 6 - Observation 3.13
obs3_14                15                  0.0     0.0000                                                          # DATASET 6 - Observation 3.14
obs3_15                16                  0.0     0.0000                                                          # DATASET 6 - Observation 3.15
obs3_16                17                  0.0     0.0000                                                          # DATASET 6 - Observation 3.16
obs3_17                18                  0.0     0.0000                                                          # DATASET 6 - Observation 3.17
obs3_18                19                  0.0     0.0000                                                          # DATASET 6 - Observation 3.18
obs3_19                20                  0.0     0.0000                                                          # DATASET 6 - Observation 3.19
obs3_20                21                  0.0     0.0000                                                          # DATASET 6 - Observation 3.20
obs3_21                22                  0.0     0.0000                                                          # DATASET 6 - Observation 3.21
obs3_22                23                  0.0     0.0000                                                          # DATASET 6 - Observation 3.22
obs3_23                24                  0.0     0.0000                                                          # DATASET 6 - Observation 3.23
obs3_24                25                  0.0     0.0000                                                          # DATASET 6 - Observation 3.24
obs3_25                26                  0.0     0.0000                                                          # DATASET 6 - Observation 3.25
obs3_26                27                  0.0     0.0000                                                          # DATASET 6 - Observation 3.26
obs3_27                28                  0.0     0.0000                                                          # DATASET 6 - Observation 3.27
obs3_28                29                  0.0     0.0000                                                          # DATASET 6 - Observation 3.28
obs3_29                30                  0.0     0.0000                                                          # DATASET 6 - Observation 3.29
obs3_30                31                  0.0     0.0000                                                          # DATASET 6 - Observation 3.30
obs3_31                32                  0.0     0.0000                                                          # DATASET 6 - Observation 3.31
obs3_32                33                  0.0     0.0000                                                          # DATASET 6 - Observation 3.32
obs3_33                34                  0.0     0.0000                                                          # DATASET 6 - Observation 3.33
obs3_34                35                  0.0     0.0000                                                          # DATASET 6 - Observation 3.34
obs3_35                36                  0.0     0.0000                                                          # DATASET 6 - Observation 3.35
obs3_36                37                  0.0     0.0000                                                          # DATASET 6 - Observation 3.36
obs3_37                38                  0.0     0.0000                                                          # DATASET 6 - Observation 3.37
obs3_38                39                  0.0     0.0000                                                          # DATASET 6 - Observation 3.38
obs3_39                40                  0.0     0.0000                                                          # DATASET 6 - Observation 3.39
obs3_40                41                  0.0     0.0000                                                          # DATASET 6 - Observation 3.40
obs3_41                42                  0.0     0.0000                                                          # DATASET 6 - Observation 3.41
obs3_42                43                  0.0     0.0000                                                          # DATASET 6 - Observation 3.42
obs3_43                44                  0.0     0.0000                                                          # DATASET 6 - Observation 3.43
obs3_44                45                  0.0     0.0000                                                          # DATASET 6 - Observation 3.44
obs3_45                46                  0.0     0.0000                                                          # DATASET 6 - Observation 3.45
obs3_46                47                  0.0     0.0000                                                          # DATASET 6 - Observation 3.46
obs3_47                48                  0.0     0.0000                                                          # DATASET 6 - Observation 3.47
obs3_48                48               3600.0     0.0000                                                          # DATASET 6 - Observation 3.48
obs4                    1         23         22        -48                  0.0    -0.0153    -0.3723     0.0000   # DATASET 3 - Observation 4
         1                                                                                                         # DATASET 5 - Observation 4
obs4_1                  2                  0.0     0.0000                                                          # DATASET 6 - Observation 4.1
obs4_2                  3                  0.0     0.0000                                                          # DATASET 6 - Observation 4.2
obs4_3                  4                  0.0     0.0000                                                          # DATASET 6 - Observation 4.3
obs4_4                  5                  0.0     0.0000                                                          # DATASET 6 - Observation 4.4
obs4_5                  6                  0.0     0.0000                                                          # DATASET 6 - Observation 4.5
obs4_6                  7                  0.0     0.0000                                                          # DATASET 6 - Observation 4.6
obs4_7                  8                  0.0     0.0000                                                          # DATASET 6 - Observation 4.7
obs4_8                  9                  0.0     0.0000                                                          # DATASET 6 - Observation 4.8
obs4_9                 10                  0.0     0.0000                                                          # DATASET 6 - Observation 4.9
obs4_10                11                  0.0     0.0000                                                          # DATASET 6 - Observation 4.10
obs4_11                12                  0.0     0.0000                                                          # DATASET 6 - Observation 4.11
obs4_12                13                  0.0     0.0000                                                          # DATASET 6 - Observation 4.12
obs4_13                14                  0.0     0.0000                                                          # DATASET 6 - Observation 4.13
obs4_14                15                  0.0     0.0000                                                          # DATASET 6 - Observation 4.14
obs4_15                16                  0.0     0.0000                                                          # DATASET 6 - Observation 4.15
obs4_16                17                  0.0     0.0000                                                          # DATASET 6 - Observation 4.16
obs4_17                18                  0.0     0.0000                                                          # DATASET 6 - Observation 4.17
obs4_18                19                  0.0     0.0000                                                          # DATASET 6 - Observation 4.18
obs4_19                20                  0.0     0.0000                                                          # DATASET 6 - Observation 4.19
obs4_20                21                  0.0     0.0000                                                          # DATASET 6 - Observation 4.20
obs4_21                22                  0.0     0.0000                                                          # DATASET 6 - Observation 4.21
obs4_22                23                  0.0     0.0000                                                          # DATASET 6 - Observation 4.22
obs4_23                24                  0.0     0.0000                                                          # DATASET 6 - Observation 4.23
obs4_24                25                  0.0     0.0000                                                          # DATASET 6 - Observation 4.24
obs4_25                26                  0.0     0.0000                                                          # DATASET 6 - Observation 4.25
obs4_26                27                  0.0     0.0000                                                          # DATASET 6 - Observation 4.26
obs4_27                28                  0.0     0.0000                                                          # DATASET 6 - Observation 4.27
obs4_28                29                  0.0     0.0000                                                          # DATASET 6 - Observation 4.28
obs4_29                30                  0.0     0.0000                                                          # DATASET 6 - Observation 4.29
obs4_30                31                  0.0     0.0000                                                          # DATASET 6 - Observation 4.30
obs4_31                32                  0.0     0.0000                                                          # DATASET 6 - Observation 4.31
obs4_32                33                  0.0     0.0000                                                          # DATASET 6 - Observation 4.32
obs4_33                34                  0.0     0.0000                                                          # DATASET 6 - Observation 4.33
obs4_34                35                  0.0     0.0000                                                          # DATASET 6 - Observation 4.34
obs4_35                36                  0.0     0.0000                                                          # DATASET 6 - Observation 4.35
obs4_36                37                  0.0     0.0000                                                          # DATASET 6 - Observation 4.36
obs4_37                38                  0.0     0.0000                                                          # DATASET 6 - Observation 4.37
obs4_38                39                  0.0     0.0000                                                          # DATASET 6 - Observation 4.38
obs4_39                40                  0.0     0.0000                                                          # DATASET 6 - Observation 4.39
obs4_40                41                  0.0     0.0000                                                          # DATASET 6 - Observation 4.40
obs4_41                42                  0.0     0.0000                                                          # DATASET 6 - Observation 4.41
obs4_42                43                  0.0     0.0000                                                          # DATASET 6 - Observation 4.42
obs4_43                44                  0.0     0.0000                                                          # DATASET 6 - Observation 4.43
obs4_44                45                  0.0     0.0000                                                          # DATASET 6 - Observation 4.44
obs4_45                46                  0.0     0.0000                                                          # DATASET 6 - Observation 4.45
obs4_46                47                  0.0     0.0000                                                          # DATASET 6 - Observation 4.46
obs4_47                48                  0.0     0.0000                                                          # DATASET 6 - Observation 4.47
obs4_48                48               3600.0     0.0000                                                          # DATASET 6 - Observation 4.48
obs5                    1         23         32        -48                  0.0     0.4383    -0.1599     0.0000   # DATASET 3 - Observation 5
         1                                                                                                         # DATASET 5 - Observation 5
obs5_1                  2                  0.0     0.0000                                                          # DATASET 6 - Observation 5.1
obs5_2                  3                  0.0     0.0000                                                          # DATASET 6 - Observation 5.2
obs5_3                  4                  0.0     0.0000                                                          # DATASET 6 - Observation 5.3