# DIS package for MODFLOW-2005 generated by Flopy 3.5.0
         1        40        48        48         1         2
  0
INTERNAL               1  (48E15.6) -1 #delr                          
   2.500000E+01   2.500000E+01   2.500000E+01   2.500000E+01   2.500000E+01   2.500000E+01   2.500000E+01   2.500000E+01   2.500000E+01   2.500000E+01   2.500000E+01   2.500000E+01   2.500000E+01   2.500000E+01   2.500000E+01   2.500000E+01   2.500000E+01   2.500000E+01   2.500000E+01   2.500000E+01   2.500000E+01   2.500000E+01   2.500000E+01   2.500000E+01   2.500000E+01   2.500000E+01   2.500000E+01   2.500000E+01   2.500000E+01   2.500000E+01   2.500000E+01   2.500000E+01   2.500000E+01   2.500000E+01   2.500000E+01   2.500000E+01   2.500000E+01   2.500000E+01   2.500000E+01   2.500000E+01   2.500000E+01   2.500000E+01   2.500000E+01   2.500000E+01   2.500000E+01   2.500000E+01   2.500000E+01   2.500000E+01
INTERNAL               1  (40E15.6) -1 #delc                          
   2.500000E+01   2.500000E+01   2.500000E+01   2.500000E+01   2.500000E+01   2.500000E+01   2.500000E+01   2.500000E+01   2.500000E+01   2.500000E+01   2.500000E+01   2.500000E+01   2.500000E+01   2.500000E+01   2.500000E+01   2.500000E+01   2.500000E+01   2.500000E+01   2.500000E+01   2.500000E+01   2.500000E+01   2.500000E+01   2.500000E+01   2.500000E+01   2.500000E+01   2.500000E+01   2.500000E+01   2.500000E+01   2.500000E+01   2.500000E+01   2.500000E+01   2.500000E+01   2.500000E+01   2.500000E+01   2.500000E+01   2.500000E+01   2.500000E+01   2.500000E+01   2.500000E+01   2.500000E+01
INTERNAL               1  (48E15.6) -1 #model_top                     
   5.000000E+01   5.000000E+01   5.000000E+01   5.000000E+01   5.000000E+01   5.000000E+01   5.000000E+01   5.000000E+01   5.000000E+01   5.000000E+01   5.000000E+01   5.000000E+01   5.000000E+01   5.000000E+01   5.000000E+01   5.000000E+01   5.000000E+01   5.000000E+01   5.000000E+01   5.000000E+01   5.000000E+01   5.000000E+01   5.000000E+01   5.000000E+01   5.000000E+01   5.000000E+01   5.000000E+01   5.000000E+01   5.000000E+01   5.000000E+01   5.000000E+01   5.000000E+01   5.000000E+01   5.000000E+01   5.000000E+01   5.000000E+01   5.000000E+01   5.000000E+01   5.000000E+01   5.000000E+01   5.000000E+01   5.000000E+01   5.000000E+01   5.000000E+01   5.000000E+01   5.000000E+01   5.000000E+01   5.000000E+01
   5.000000E+01   5.000000E+01   5.000000E+01   5.000000E+01   5.000000E+01   5.000000E+01   5.000000E+01   5.000000E+01   5.000000E+01   5.000000E+01   5.000000E+01   5.000000E+01   5.000000E+01   5.000000E+01   5.000000E+01   5.000000E+01   5.000000E+01   5.000000E+01   5.000000E+01   5.000000E+01   5.000000E+01   5.000000E+01   5.000000E+01   5.000000E+01   5.000000E+01   5.000000E+01   5.000000E+01   5.000000E+01   5.000000E+01   5.000000E+01   5.000000E+01   5.000000E+01   5.000000E+01   5.000000E+01   5.000000E+01   5.000000E+01   5.000000E+01   5.000000E+01   5.000000E+01   5.000000E+01   5.000000E+01   5.000000E+01   5.000000E+01   5.000000E+01   5.000000E+01   5.000000E+01   5.000000E+01   5.000000E+01
   5.000000E+01   5.000000E+01   5.000000E+01   5.000000E+01   5.000000E+01   5.000000E+01   5.000000E+01   5.000000E+01   5.000000E+01   5.000000E+01   5.000000E+01   5.000000E+01   5.000000E+01   5.000000E+01   5.000000E+01   5.000000E+01   5.000000E+01   5.000000E+01   5.000000E+01   5.000000E+01   5.000000E+01   5.000000E+01   5.000000E+01   5.000000E+01   5.000000E+01   5.000000E+01   5.000000E+01   5.000000E+01   5.000000E+01   5.000000E+01   5.000000E+01   5.000000E+01   5.000000E+01   5.000000E+01   5.000000E+01   5.000000E+01   5.000000E+01   5.000000E+01   5.000000E+01   5.000000E+01   5.000000E+01   5.000000E+01   5.000000E+01   5.000000E+01   5.000000E+01   5.000000E+01   5.000000E+01   5.000000E+01
   5.000000E+01   5.000000E+01   5.000000E+01   5.000000E+01   5.000000E+01   5.000000E+01   5.000000E+01   5.000000E+01   5.000000E+01   5.000000E+01   5.000000E+01   5.000000E+01   5.000000E+01   5.000000E+01   5.000000E+01   5.000000E+01   5.000000E+01   5.000000E+01   5.000000E+01   5.000000E+01   5.000000E+01   5.000000E+01   5.000000E+01   5.000000E+01   5.000000E+01   5.000000E+01   5.000000E+01   5.000000E+01   5.000000E+01   5.000000E+01   5.000000E+01   5.000000E+01   5.000000E+01   5.000000E+01   5.000000E+01   5.000000E+01   5.000000E+01   5.000000E+01   5.000000E+01   5.000000E+01   5.000000E+01   5.000000E+01   5.000000E+01   5.000000E+01   5.000000E+01   5.000000E+01   5.000000E+01   5.000000E+01
   5.000000E+01   5.000000E+01   5.000000E+01   5.000000E+01   5.000000E+01   5.000000E+01   5.000000E+01   5.000000E+01   5.000000E+01   5.000000E+01   5.000000E+01   5.000000E+01   5.000000E+01   5.000000E+01   5.000000E+01   5.000000E+01   5.000000E+01   5.000000E+01   5.000000E+01   5.000000E+01   5.000000E+01   5.000000E+01   5.000000E+01   5.000000E+01   5.000000E+01   5.000000E+01   5.000000E+01   5.000000E+01   5.000000E+01   5.000000E+01   5.000000E+01   5.000000E+01   5.000000E+01   5.000000E+01   5.000000E+01   5.000000E+01   5.000000E+01   5.000000E+01   5.000000E+01   5.000000E+01   5.000000E+01   5.000000E+01   5.000000E+01   5.000000E+01   5.000000E+01   5.000000E+01   5.000000E+01   5.000000E+01
   5.000000E+01   5.000000E+01   5.000000E+01   5.000000E+01   5.000000E+01   5.000000E+01   5.000000E+01   5.000000E+01   5.000000E+01   5.000000E+01   5.000000E+01   5.000000E+01   5.000000E+01   5.000000E+01   5.000000E+01   5.000000E+01   5.000000E+01   5.000000E+01   5.000000E+01   5.000000E+01   5.000000E+01   5.000000E+01   5.000000E+01   5.000000E+01   5.000000E+01   5.000000E+01   5.000000E+01   5.000000E+01   5.000000E+01   5.000000E+01   5.000000E+01   5.000000E+01   5.000000E+01   5.000000E+01   5.000000E+01   5.000000E+01   5.000000E+01   5.000000E+01   5.000000E+01   5.000000E+01   5.000000E+01   5.000000E+01   5.000000E+01   5.000000E+01   5.000000E+01   5.000000E+01   5.000000E+01   5.000000E+01
   5.000000E+01   5.000000E+01   5.000000E+01   5.000000E+01   5.000000E+01   5.000000E+01   5.000000E+01   5.000000E+01   5.000000E+01   5.000000E+01   5.000000E+01   5.000000E+01   5.000000E+01   5.000000E+01   5.000000E+01   5.000000E+01   5.000000E+01   5.000000E+01   5.000000E+01   5.000000E+01   5.000000E+01   5.000000E+01   5.000000E+01   5.000000E+01   5.000000E+01   5.000000E+01   5.000000E+01   5.000000E+01   5.000000E+01   5.000000E+01   5.000000E+01   5.000000E+01   5.000000E+01   5.000000E+01   5.000000E+01   5.000000E+01   5.000000E+01   5.000000E+01   5.000000E+01   5.000000E+01   5.000000E+01   5.000000E+01   5.000000E+01   5.000000E+01   5.000000E+01   5.000000E+01   5.000000E+01   5.000000E+01
   5.000000E+01   5.000000E+01   5.000000E+01   5.000000E+01   5.000000E+01   5.000000E+01   5.000000E+01   5.000000E+01   5.000000E+01   5.000000E+01   5.000000E+01   5.000000E+01   5.000000E+01   5.000000E+01   5.000000E+01   5.000000E+01   5.000000E+01   5.000000E+01   5.000000E+01   5.000000E+01   5.000000E+01   5.000000E+01   5.000000E+01   5.000000E+01   5.000000E+01   5.000000E+01   5.000000E+01   5.000000E+01   5.000000E+01   5.000000E+01   5.000000E+01   5.000000E+01   5.000000E+01   5.000000E+01   5.000000E+01   5.000000E+01   5.000000E+01   5.000000E+01   5.000000E+01   5.000000E+01   5.000000E+01   5.000000E+01   5.000000E+01   5.000000E+01   5.000000E+01   5.000000E+01   5.000000E+01   5.000000E+01
   5.000000E+01   5.000000E+01   5.000000E+01   5.000000E+01   5.000000E+01   5.000000E+01   5.000000E+01   5.000000E+01   5.000000E+01   5.000000E+01   5.000000E+01   5.000000E+01   5.000000E+01   5.000000E+01   5.000000E+01   5.000000E+01   5.000000E+01   5.000000E+01   5.000000E+01   5.000000E+01   5.000000E+01   5.000000E+01   5.000000E+01   5.000000E+01   5.000000E+01   5.000000E+01   5.000000E+01   5.000000E+01   5.000000E+01   5.000000E+01   5.000000E+01   5.000000E+01   5.000000E+01   5.000000E+01   5.000000E+01   5.000000E+01   5.000000E+01   5.000000E+01   5.000000E+01   5.000000E+01   5.000000E+01   5.000000E+01   5.000000E+01   5.000000E+01   5.000000E+01   5.000000E+01   5.000000E+01   5.000000E+01
   5.000000E+01   5.000000E+01   5.000000E+01   5.000000E+01   5.000000E+01   5.000000E+01   5.000000E+01   5.000000E+01   5.000000E+01   5.000000E+01   5.000000E+01   5.000000E+01   5.000000E+01   5.000000E+01   5.000000E+01   5.000000E+01   5.000000E+01   5.000000E+01   5.000000E+01   5.000000E+01   5.000000E+01   5.000000E+01   5.000000E+01   5.000000E+01   5.000000E+01   5.000000E+01   5.000000E+01   5.000000E+01   5.000000E+01   5.000000E+01   5.000000E+01   5.000000E+01   5.000000E+01   5.000000E+01   5.000000E+01   5.000000E+01   5.000000E+01   5.000000E+01   5.000000E+01   5.000000E+01   5.000000E+01   5.000000E+01   5.000000E+01   5.000000E+01   5.000000E+01   5.000000E+01   5.000000E+01   5.000000E+01
   5.000000E+01   5.000000E+01   5.000000E+01   5.000000E+01   5.000000E+01   5.000000E+01   5.000000E+01   5.000000E+01   5.000000E+01   5.000000E+01   5.000000E+01   5.000000E+01   5.000000E+01   5.000000E+01   5.000000E+01   5.000000E+01   5.000000E+01   5.000000E+01   5.000000E+01   5.000000E+01   5.000000E+01   5.000000E+01   5.000000E+01   5.000000E+01   5.000000E+01   5.000000E+01   5.000000E+01   5.000000E+01   5.000000E+01   5.000000E+01   5.000000E+01   5.000000E+01   5.000000E+01   5.000000E+01   5.000000E+01   5.000000E+01   5.000000E+01   5.000000E+01   5.000000E+01   5.000000E+01   5.000000E+01   5.000000E+01   5.000000E+01   5.000000E+01   5.000000E+01   5.000000E+01   5.000000E+01   5.000000E+01
   5.000000E+01   5.000000E+01   5.000000E+01   5.000000E+01   5.000000E+01   5.000000E+01   5.000000E+01   5.000000E+01   5.000000E+01   5.000000E+01   5.000000E+01   5.000000E+01   5.000000E+01   5.000000E+01   5.000000E+01   5.000000E+01   5.000000E+01   5.000000E+01   5.000000E+01   5.000000E+01   5.000000E+01   5.000000E+01   5.000000E+01   5.000000E+01   5.000000E+01   5.000000E+01   5.000000E+01   5.000000E+01   5.000000E+01   5.000000E+01   5.000000E+01   5.000000E+01   5.000000E+01   5.000000E+01   5.000000E+01   5.000000E+01   5.000000E+01   5.000000E+01   5.000000E+01   5.000000E+01   5.000000E+01   5.000000E+01   5.000000E+01   5.000000E+01   5.000000E+01   5.000000E+01   5.000000E+01   5.000000E+01
   5.000000E+01   5.000000E+01   5.000000E+01   5.000000E+01   5.000000E+01   5.000000E+01   5.000000E+01   5.000000E+01   5.000000E+01   5.000000E+01   5.000000E+01   5.000000E+01   5.000000E+01   5.000000E+01   5.000000E+01   5.000000E+01   5.000000E+01   5.000000E+01   5.000000E+01   5.000000E+01   5.000000E+01   5.000000E+01   5.000000E+01   5.000000E+01   5.000000E+01   5.000000E+01   5.000000E+01   5.000000E+01   5.000000E+01   5.000000E+01   5.000000E+01   5.000000E+01   5.000000E+01   5.000000E+01   5.000000E+01   5.000000E+01   5.000000E+01   5.000000E+01   5.000000E+01   5.000000E+01   5.000000E+01   5.000000E+01   5.000000E+01   5.000000E+01   5.000000E+01   5.000000E+01   5.000000E+01   5.000000E+01
   5.000000E+01   5.000000E+01   5.000000E+01   5.000000E+01   5.000000E+01   5.000000E+01   5.000000E+01   5.000000E+01   5.000000E+01   5.000000E+01   5.000000E+01   5.000000E+01   5.000000E+01   5.000000E+01   5.000000E+01   5.000000E+01   5.000000E+01   5.000000E+01   5.000000E+01   5.000000E+01   5.000000E+01   5.000000E+01   5.000000E+01   5.000000E+01   5.000000E+01   5.000000E+01   5.000000E+01   5.000000E+01   5.000000E+01   5.000000E+01   5.000000E+01   5.000000E+01   5.000000E+01   5.000000E+01   5.000000E+01   5.000000E+01   5.000000E+01   5.000000E+01   5.000000E+01   5.000000E+01   5.000000E+01   5.000000E+01   5.000000E+01   5.000000E+01   5.000000E+01   5.000000E+01   5.000000E+01   5.000000E+01
   5.000000E+01   5.000000E+01   5.000000E+01   5.000000E+01   5.000000E+01   5.000000E+01   5.000000E+01   5.000000E+01   5.000000E+01   5.000000E+01   5.000000E+01   5.000000E+01   5.000000E+01   5.000000E+01   5.000000E+01   5.000000E+01   5.000000E+01   5.000000E+01   5.000000E+01   5.000000E+01   5.000000E+01   5.000000E+01   5.000000E+01   5.000000E+01   5.000000E+01   5.000000E+01   5.000000E+01   5.000000E+01   5.000000E+01   5.000000E+01   5.000000E+01   5.000000E+01   5.000000E+01   5.000000E+01   5.000000E+01   5.000000E+01   5.000000E+01   5.000000E+01   5.000000E+01   5.000000E+01   5.000000E+01   5.000000E+01   5.000000E+01   5.000000E+01   5.000000E+01   5.000000E+01   5.000000E+01   5.000000E+01
   5.000000E+01   5.000000E+01   5.000000E+01   5.000000E+01   5.000000E+01   5.000000E+01   5.000000E+01   5.000000E+01   5.000000E+01   5.000000E+01   5.000000E+01   5.000000E+01   5.000000E+01   5.000000E+01   5.000000E+01   5.000000E+01   5.000000E+01   5.000000E+01   5.000000E+01   5.000000E+01   5.000000E+01   5.000000E+01   5.000000E+01   5.000000E+01   5.000000E+01   5.000000E+01   5.000000E+01   5.000000E+01   5.000000E+01   5.000000E+01   5.000000E+01   5.000000E+01   5.000000E+01   5.000000E+01   5.000000E+01   5.000000E+01   5.000000E+01   5.000000E+01   5.000000E+01   5.000000E+01   5.000000E+01   5.000000E+01   5.000000E+01   5.000000E+01   5.000000E+01   5.000000E+01   5.000000E+01   5.000000E+01
   5.000000E+01   5.000000E+01   5.000000E+01   5.000000E+01   5.000000E+01   5.000000E+01   5.000000E+01   5.000000E+01   5.000000E+01   5.000000E+01   5.000000E+01   5.000000E+01   5.000000E+01   5.000000E+01   5.000000E+01   5.000000E+01   5.000000E+01   5.000000E+01   5.000000E+01   5.000000E+01   5.000000E+01   5.000000E+01   5.000000E+01   5.000000E+01   5.000000E+01   5.000000E+01   5.000000E+01   5.000000E+01   5.000000E+01   5.000000E+01   5.000000E+01   5.000000E+01   5.000000E+01   5.000000E+01   5.000000E+01   5.000000E+01   5.000000E+01   5.000000E+01   5.000000E+01   5.000000E+01   5.000000E+01   5.000000E+01   5.000000E+01   5.000000E+01   5.000000E+01   5.000000E+01   5.000000E+01   5.000000E+01
   5.000000E+01   5.000000E+01   5.000000E+01   5.000000E+01   5.000000E+01   5.000000E+01   5.000000E+01   5.000000E+01   5.000000E+01   5.000000E+01   5.000000E+01   5.000000E+01   5.000000E+01   5.000000E+01   5.000000E+01   5.000000E+01   5.000000E+01   5.000000E+01   5.000000E+01   5.000000E+01   5.000000E+01   5.000000E+01   5.000000E+01   5.000000E+01   5.000000E+01   5.000000E+01   5.000000E+01   5.000000E+01   5.000000E+01   5.000000E+01   5.000000E+01   5.000000E+01   5.000000E+01   5.000000E+01   5.000000E+01   5.000000E+01   5.000000E+01   5.000000E+01   5.000000E+01   5.000000E+01   5.000000E+01   5.000000E+01   5.000000E+01   5.000000E+01   5.000000E+01   5.000000E+01   5.000000E+01   5.000000E+01
   5.000000E+01   5.000000E+01   5.000000E+01   5.000000E+01   5.000000E+01   5.000000E+01   5.000000E+01   5.000000E+01   5.000000E+01   5.000000E+01   5.000000E+01   5.000000E+01   5.000000E+01   5.000000E+01   5.000000E+01   5.000000E+01   5.000000E+01   5.000000E+01   5.000000E+01   5.000000E+01   5.000000E+01   5.000000E+01   5.000000E+01   5.000000E+01   5.000000E+01   5.000000E+01   5.000000E+01   5.000000E+01   5.000000E+01   5.000000E+01   5.000000E+01   5.000000E+01   5.000000E+01   5.000000E+01   5.000000E+01   5.000000E+01   5.000000E+01   5.000000E+01   5.000000E+01   5.000000E+01   5.000000E+01   5.000000E+01   5.000000E+01   5.000000E+01   5.000000E+01   5.000000E+01   5.000000E+01   5.000000E+01
   5.000000E+01   5.000000E+01   5.000000E+01   5.000000E+01   5.000000E+01   5.000000E+01   5.000000E+01   5.000000E+01   5.000000E+01   5.000000E+01   5.000000E+01   5.000000E+01   5.000000E+01   5.000000E+01   5.000000E+01   5.000000E+01   5.000000E+01   5.000000E+01   5.000000E+01   5.000000E+01   5.000000E+01   5.000000E+01   5.000000E+01   5.000000E+01   5.000000E+01   5.000000E+01   5.000000E+01   5.000000E+01   5.000000E+01   5.000000E+01   5.000000E+01   5.000000E+01   5.000000E+01   5.000000E+01   5.000000E+01   5.000000E+01   5.000000E+01   5.000000E+01   5.000000E+01   5.000000E+01   5.000000E+01   5.000000E+01   5.000000E+01   5.000000E+01   5.000000E+01   5.000000E+01   5.000000E+01   5.000000E+01
   5.000000E+01   5.000000E+01   5.000000E+01   5.000000E+01   5.000000E+01   5.000000E+01   5.000000E+01   5.000000E+01   5.000000E+01   5.000000E+01   5.000000E+01   5.000000E+01   5.000000E+01   5.000000E+01   5.000000E+01   5.000000E+01   5.000000E+01   5.000000E+01   5.000000E+01   5.000000E+01   5.000000E+01   5.000000E+01   5.000000E+01   5.000000E+01   5.000000E+01   5.000000E+01   5.000000E+01   5.000000E+01   5.000000E+01   5.000000E+01   5.000000E+01   5.000000E+01   5.000000E+01   5.000000E+01   5.000000E+01   5.000000E+01   5.000000E+01   5.000000E+01   5.000000E+01   5.000000E+01   5.000000E+01   5.000000E+01   5.000000E+01   5.000000E+01   5.000000E+01   5.000000E+01   5.000000E+01   5.000000E+01
   5.000000E+01   5.000000E+01   5.000000E+01   5.000000E+01   5.000000E+01   5.000000E+01   5.000000E+01   5.000000E+01   5.000000E+01   5.000000E+01   5.000000E+01   5.000000E+01   5.000000E+01   5.000000E+01   5.000000E+01   5.000000E+01   5.000000E+01   5.000000E+01   5.000000E+01   5.000000E+01   5.000000E+01   5.000000E+01   5.000000E+01   5.000000E+01   5.000000E+01   5.000000E+01   5.000000E+01   5.000000E+01   5.000000E+01   5.000000E+01   5.000000E+01   5.000000E+01   5.000000E+01   5.000000E+01   5.000000E+01   5.000000E+01   5.000000E+01   5.000000E+01   5.000000E+01   5.000000E+01   5.000000E+01   5.000000E+01   5.000000E+01   5.000000E+01   5.000000E+01   5.000000E+01   5.000000E+01   5.000000E+01
   5.000000E+01   5.000000E+01   5.000000E+01   5.000000E+01   5.000000E+01   5.000000E+01   5.000000E+01   5.000000E+01   5.000000E+01   5.000000E+01   5.000000E+01   5.000000E+01   5.000000E+01   5.000000E+01   5.000000E+01   5.000000E+01   5.000000E+01   5.000000E+01   5.000000E+01   5.000000E+01   5.000000E+01   5.000000E+01   5.000000E+01   5.000000E+01   5.000000E+01   5.000000E+01   5.000000E+01   5.000000E+01   5.000000E+01   5.000000E+01   5.000000E+01   5.000000E+01   5.000000E+01   5.000000E+01   5.000000E+01   5.000000E+01   5.000000E+01   5.000000E+01   5.000000E+01   5.000000E+01   5.000000E+01   5.000000E+01   5.000000E+01   5.000000E+01   5.000000E+01   5.000000E+01   5.000000E+01   5.000000E+01
   5.000000E+01   5.000000E+01   5.000000E+01   5.000000E+01   5.000000E+01   5.000000E+01   5.000000E+01   5.000000E+01   5.000000E+01   5.000000E+01   5.000000E+01   5.000000E+01   5.000000E+01   5.000000E+01   5.000000E+01   5.000000E+01   5.000000E+01   5.000000E+01   5.000000E+01   5.000000E+01   5.000000E+01   5.000000E+01   5.000000E+01   5.000000E+01   5.000000E+01   5.000000E+01   5.000000E+01   5.000000E+01   5.000000E+01   5.000000E+01   5.000000E+01   5.000000E+01   5.000000E+01   5.000000E+01   5.000000E+01   5.000000E+01   5.000000E+01   5.000000E+01   5.000000E+01   5.000000E+01   5.000000E+01   5.000000E+01   5.000000E+01   5.000000E+01   5.000000E+01   5.000000E+01   5.000000E+01   5.000000E+01
   5.000000E+01   5.000000E+01   5.000000E+01   5.000000E+01   5.000000E+01   5.000000E+01   5.000000E+01   5.000000E+01   5.000000E+01   5.000000E+01   5.000000E+01   5.000000E+01   5.000000E+01   5.000000E+01   5.000000E+01   5.000000E+01   5.000000E+01   5.000000E+01   5.000000E+01   5.000000E+01   5.000000E+01   5.000000E+01   5.000000E+01   5.000000E+01   5.000000E+01   5.000000E+01   5.000000E+01   5.000000E+01   5.000000E+01   5.000000E+01   5.000000E+01   5.000000E+01   5.000000E+01   5.000000E+01   5.000000E+01   5.000000E+01   5.000000E+01   5.000000E+01   5.000000E+01   5.000000E+01   5.000000E+01   5.000000E+01   5.000000E+01   5.000000E+01   5.000000E+01   5.000000E+01   5.000000E+01   5.000000E+01
   5.000000E+01   5.000000E+01   5.000000E+01   5.000000E+01   5.000000E+01   5.000000E+01   5.000000E+01   5.000000E+01   5.000000E+01   5.000000E+01   5.000000E+01   5.000000E+01   5.000000E+01   5.000000E+01   5.000000E+01   5.000000E+01   5.000000E+01   5.000000E+01   5.000000E+01   5.000000E+01   5.000000E+01   5.000000E+01   5.000000E+01   5.000000E+01   5.000000E+01   5.000000E+01   5.000000E+01   5.000000E+01   5.000000E+01   5.000000E+01   5.000000E+01   5.000000E+01   5.000000E+01   5.000000E+01   5.000000E+01   5.000000E+01   5.000000E+01   5.000000E+01   5.000000E+01   5.000000E+01   5.000000E+01   5.000000E+01   5.000000E+01   5.000000E+01   5.000000E+01   5.000000E+01   5.000000E+01   5.000000E+01
   5.000000E+01   5.000000E+01   5.000000E+01   5.000000E+01   5.000000E+01   5.000000E+01   5.000000E+01   5.000000E+01   5.000000E+01   5.000000E+01   5.000000E+01   5.000000E+01   5.000000E+01   5.000000E+01   5.000000E+01   5.000000E+01   5.000000E+01   5.000000E+01   5.000000E+01   5.000000E+01   5.000000E+01   5.000000E+01   5.000000E+01   5.000000E+01   5.000000E+01   5.000000E+01   5.000000E+01   5.000000E+01   5.000000E+01   5.000000E+01   5.000000E+01   5.000000E+01   5.000000E+01   5.000000E+01   5.000000E+01   5.000000E+01   5.000000E+01   5.000000E+01   5.000000E+01   5.000000E+01   5.000000E+01   5.000000E+01   5.000000E+01   5.000000E+01   5.000000E+01   5.000000E+01   5.000000E+01   5.000000E+01
   5.000000E+01   5.000000E+01   5.000000E+01   5.000000E+01   5.000000E+01   5.000000E+01   5.000000E+01   5.000000E+01   5.000000E+01   5.000000E+01   5.000000E+01   5.000000E+01   5.000000E+01   5.000000E+01   5.000000E+01   5.000000E+01   5.000000E+01   5.000000E+01   5.000000E+01   5.000000E+01   5.000000E+01   5.000000E+01   5.000000E+01   5.000000E+01   5.000000E+01   5.000000E+01   5.000000E+01   5.000000E+01   5.000000E+01   5.000000E+01   5.000000E+01   5.000000E+01   5.000000E+01   5.000000E+01   5.000000E+01   5.000000E+01   5.000000E+01   5.000000E+01   5.000000E+01   5.000000E+01   5.000000E+01   5.000000E+01   5.000000E+01   5.000000E+01   5.000000E+01   5.000000E+01   5.000000E+01   5.000000E+01
   5.000000E+01   5.000000E+01   5.000000E+01   5.000000E+01   5.000000E+01   5.000000E+01   5.000000E+01   5.000000E+01   5.000000E+01   5.000000E+01   5.000000E+01   5.000000E+01   5.000000E+01   5.000000E+01   5.000000E+01   5.000000E+01   5.000000E+01   5.000000E+01   5.000000E+01   5.000000E+01   5.000000E+01   5.000000E+01   5.000000E+01   5.000000E+01   5.000000E+01   5.000000E+01   5.000000E+01   5.000000E+01   5.000000E+01   5.000000E+01   5.000000E+01   5.000000E+01   5.000000E+01   5.000000E+01   5.000000E+01   5.000000E+01   5.000000E+01   5.000000E+01   5.000000E+01   5.000000E+01   5.000000E+01   5.000000E+01   5.000000E+01   5.000000E+01   5.000000E+01   5.000000E+01   5.000000E+01   5.000000E+01
   5.000000E+01   5.000000E+01   5.000000E+01   5.000000E+01   5.000000E+01   5.000000E+01   5.000000E+01   5.000000E+01   5.000000E+01   5.000000E+01   5.000000E+01   5.000000E+01   5.000000E+01   5.000000E+01   5.000000E+01   5.000000E+01   5.000000E+01   5.000000E+01   5.000000E+01   5.000000E+01   5.000000E+01   5.000000E+01   5.000000E+01   5.000000E+01   5.000000E+01   5.000000E+01   5.000000E+01   5.000000E+01   5.000000E+01   5.000000E+01   5.000000E+01   5.000000E+01   5.000000E+01   5.000000E+01   5.000000E+01   5.000000E+01   5.000000E+01   5.000000E+01   5.000000E+01   5.000000E+01   5.000000E+01   5.000000E+01   5.000000E+01   5.000000E+01   5.000000E+01   5.000000E+01   5.000000E+01   5.000000E+01
   5.000000E+01   5.000000E+01   5.000000E+01   5.000000E+01   5.000000E+01   5.000000E+01   5.000000E+01   5.000000E+01   5.000000E+01   5.000000E+01   5.000000E+01   5.000000E+01   5.000000E+01   5.000000E+01   5.000000E+01   5.000000E+01   5.000000E+01   5.000000E+01   5.000000E+01   5.000000E+01   5.000000E+01   5.000000E+01   5.000000E+01   5.000000E+01   5.000000E+01   5.000000E+01   5.000000E+01   5.000000E+01   5.000000E+01   5.000000E+01   5.000000E+01   5.000000E+01   5.000000E+01   5.000000E+01   5.000000E+01   5.000000E+01   5.000000E+01   5.000000E+01   5.000000E+01   5.000000E+01   5.000000E+01   5.000000E+01   5.000000E+01   5.000000E+01   5.000000E+01   5.000000E+01   5.000000E+01   5.000000E+01
   5.000000E+01   5.000000E+01   5.000000E+01   5.000000E+01   5.000000E+01   5.000000E+01   5.000000E+01   5.000000E+01   5.000000E+01   5.000000E+01   5.000000E+01   5.000000E+01   5.000000E+01   5.000000E+01   5.000000E+01   5.000000E+01   5.000000E+01   5.000000E+01   5.000000E+01   5.000000E+01   5.000000E+01   5.000000E+01   5.000000E+01   5.000000E+01   5.000000E+01   5.000000E+01   5.000000E+01   5.000000E+01   5.000000E+01   5.000000E+01   5.000000E+01   5.000000E+01   5.000000E+01   5.000000E+01   5.000000E+01   5.000000E+01   5.000000E+01   5.000000E+01   5.000000E+01   5.000000E+01   5.000000E+01   5.000000E+01   5.000000E+01   5.000000E+01   5.000000E+01   5.000000E+01   5.000000E+01   5.000000E+01
   5.000000E+01   5.000000E+01   5.000000E+01   5.000000E+01   5.000000E+01   5.000000E+01   5.000000E+01   5.000000E+01   5.000000E+01   5.000000E+01   5.000000E+01   5.000000E+01   5.000000E+01   5.000000E+01   5.000000E+01   5.000000E+01   5.000000E+01   5.000000E+01   5.000000E+01   5.000000E+01   5.000000E+01   5.000000E+01   5.000000E+01   5.000000E+01   5.000000E+01   5.000000E+01   5.000000E+01   5.000000E+01   5.000000E+01   5.000000E+01   5.000000E+01   5.000000E+01   5.000000E+01   5.000000E+01   5.000000E+01   5.000000E+01   5.000000E+01   5.000000E+01   5.000000E+01   5.000000E+01   5.000000E+01   5.000000E+01   5.000000E+01   5.000000E+01   5.000000E+01   5.000000E+01   5.000000E+01   5.000000E+01
   5.000000E+01   5.000000E+01   5.000000E+01   5.000000E+01   5.000000E+01   5.000000E+01   5.000000E+01   5.000000E+01   5.000000E+01   5.000000E+01   5.000000E+01   5.000000E+01   5.000000E+01   5.000000E+01   5.000000E+01   5.000000E+01   5.000000E+01   5.000000E+01   5.000000E+01   5.000000E+01   5.000000E+01   5.000000E+01   5.000000E+01   5.000000E+01   5.000000E+01   5.000000E+01   5.000000E+01   5.000000E+01   5.000000E+01   5.000000E+01   5.000000E+01   5.000000E+01   5.000000E+01   5.000000E+01   5.000000E+01   5.000000E+01   5.000000E+01   5.000000E+01   5.000000E+01   5.000000E+01   5.000000E+01   5.000000E+01   5.000000E+01   5.000000E+01   5.000000E+01   5.000000E+01   5.000000E+01   5.000000E+01
   5.000000E+01   5.000000E+01   5.000000E+01   5.000000E+01   5.000000E+01   5.000000E+01   5.000000E+01   5.000000E+01   5.000000E+01   5.000000E+01   5.000000E+01   5.000000E+01   5.000000E+01   5.000000E+01   5.000000E+01   5.000000E+01   5.000000E+01   5.000000E+01   5.000000E+01   5.000000E+01   5.000000E+01   5.000000E+01   5.000000E+01   5.000000E+01   5.000000E+01   5.000000E+01   5.000000E+01   5.000000E+01   5.000000E+01   5.000000E+01   5.000000E+01   5.000000E+01   5.000000E+01   5.000000E+01   5.000000E+01   5.000000E+01   5.000000E+01   5.000000E+01   5.000000E+01   5.000000E+01   5.000000E+01   5.000000E+01   5.000000E+01   5.000000E+01   5.000000E+01   5.000000E+01   5.000000E+01   5.000000E+01
   5.000000E+01   5.000000E+01   5.000000E+01   5.000000E+01   5.000000E+01   5.000000E+01   5.000000E+01   5.000000E+01   5.000000E+01   5.000000E+01   5.000000E+01   5.000000E+01   5.000000E+01   5.000000E+01   5.000000E+01   5.000000E+01   5.000000E+01   5.000000E+01   5.000000E+01   5.000000E+01   5.000000E+01   5.000000E+01   5.000000E+01   5.000000E+01   5.000000E+01   5.000000E+01   5.000000E+01   5.000000E+01   5.000000E+01   5.000000E+01   5.000000E+01   5.000000E+01   5.000000E+01   5.000000E+01   5.000000E+01   5.000000E+01   5.000000E+01   5.000000E+01   5.000000E+01   5.000000E+01   5.000000E+01   5.000000E+01   5.000000E+01   5.000000E+01   5.000000E+01   5.000000E+01   5.000000E+01   5.000000E+01
   5.000000E+01   5.000000E+01   5.000000E+01   5.000000E+01   5.000000E+01   5.000000E+01   5.000000E+01   5.000000E+01   5.000000E+01   5.000000E+01   5.000000E+01   5.000000E+01   5.000000E+01   5.000000E+01   5.000000E+01   5.000000E+01   5.000000E+01   5.000000E+01   5.000000E+01   5.000000E+01   5.000000E+01   5.000000E+01   5.000000E+01   5.000000E+01   5.000000E+01   5.000000E+01   5.000000E+01   5.000000E+01   5.000000E+01   5.000000E+01   5.000000E+01   5.000000E+01   5.000000E+01   5.000000E+01   5.000000E+01   5.000000E+01   5.000000E+01   5.000000E+01   5.000000E+01   5.000000E+01   5.000000E+01   5.000000E+01   5.000000E+01   5.000000E+01   5.000000E+01   5.000000E+01   5.000000E+01   5.000000E+01
   5.000000E+01   5.000000E+01   5.000000E+01   5.000000E+01   5.000000E+01   5.000000E+01   5.000000E+01   5.000000E+01   5.000000E+01   5.000000E+01   5.000000E+01   5.000000E+01   5.000000E+01   5.000000E+01   5.000000E+01   5.000000E+01   5.000000E+01   5.000000E+01   5.000000E+01   5.000000E+01   5.000000E+01   5.000000E+01   5.000000E+01   5.000000E+01   5.000000E+01   5.000000E+01   5.000000E+01   5.000000E+01   5.000000E+01   5.000000E+01   5.000000E+01   5.000000E+01   5.000000E+01   5.000000E+01   5.000000E+01   5.000000E+01   5.000000E+01   5.000000E+01   5.000000E+01   5.000000E+01   5.000000E+01   5.000000E+01   5.000000E+01   5.000000E+01   5.000000E+01   5.000000E+01   5.000000E+01   5.000000E+01
   5.000000E+01   5.000000E+01   5.000000E+01   5.000000E+01   5.000000E+01   5.000000E+01   5.000000E+01   5.000000E+01   5.000000E+01   5.000000E+01   5.000000E+01   5.000000E+01   5.000000E+01   5.000000E+01   5.000000E+01   5.000000E+01   5.000000E+01   5.000000E+01   5.000000E+01   5.000000E+01   5.000000E+01   5.000000E+01   5.000000E+01   5.000000E+01   5.000000E+01   5.000000E+01   5.000000E+01   5.000000E+01   5.000000E+01   5.000000E+01   5.000000E+01   5.000000E+01   5.000000E+01   5.000000E+01   5.000000E+01   5.000000E+01   5.000000E+01   5.000000E+01   5.000000E+01   5.000000E+01   5.000000E+01   5.000000E+01   5.000000E+01   5.000000E+01   5.000000E+01   5.000000E+01   5.000000E+01   5.000000E+01