# RCH package for MODFLOW-2005 generated by Flopy 3.3.6
         1        50
         1        -1 # Stress period 1
CONSTANT    1.030795E-08                           #rech_1                        
