# OC package for MODFLOW-2005 generated by Flopy 3.3.6
HEAD PRINT FORMAT   0
HEAD SAVE UNIT    51
DRAWDOWN PRINT FORMAT   0
COMPACT BUDGET AUX

period 1 step 1 
  print head
  save head
  save budget

