# PCG package for MODFLOW-2005 generated by Flopy 3.3.6
2000 2000 1 9999
0.001 0.001 0.99 2 5 0 0.99 
