# PCG package for MODFLOW-2005 generated by Flopy 3.3.6
20 10 1 9999
1e-05 1e-05 0.97 2 5 0 1.0 
