# RCH package for MODFLOW-2005 generated by Flopy 3.5.0
         1        50
         1        -1 # Stress period 1
INTERNAL               1  (48E15.6) -1 #rech_1                        
   1.111111E-08   1.111111E-08   1.111111E-08   1.111111E-08   1.111111E-08   1.111111E-08   1.111111E-08   1.111111E-08   1.111111E-08   1.111111E-08   1.111111E-08   1.111111E-08   1.111111E-08   1.111111E-08   1.111111E-08   1.111111E-08   1.111111E-08   1.111111E-08   1.111111E-08   1.111111E-08   1.111111E-08   1.111111E-08   1.111111E-08   1.111111E-08   1.111111E-08   1.111111E-08   1.111111E-08   1.111111E-08   1.111111E-08   1.111111E-08   1.111111E-08   1.111111E-08   1.111111E-08   1.111111E-08   1.111111E-08   1.111111E-08   1.111111E-08   1.111111E-08   1.111111E-08   1.111111E-08   1.111111E-08   1.111111E-08   1.111111E-08   1.111111E-08   1.111111E-08   1.111111E-08   1.111111E-08   1.111111E-08
   1.111111E-08   1.111111E-08   1.111111E-08   1.111111E-08   1.111111E-08   1.111111E-08   1.111111E-08   1.111111E-08   1.111111E-08   1.111111E-08   1.111111E-08   1.111111E-08   1.111111E-08   1.111111E-08   1.111111E-08   1.111111E-08   1.111111E-08   1.111111E-08   1.111111E-08   1.111111E-08   1.111111E-08   1.111111E-08   1.111111E-08   1.111111E-08   1.111111E-08   1.111111E-08   1.111111E-08   1.111111E-08   1.111111E-08   1.111111E-08   1.111111E-08   1.111111E-08   1.111111E-08   1.111111E-08   1.111111E-08   1.111111E-08   1.111111E-08   1.111111E-08   1.111111E-08   1.111111E-08   1.111111E-08   1.111111E-08   1.111111E-08   1.111111E-08   1.111111E-08   1.111111E-08   1.111111E-08   1.111111E-08
   1.111111E-08   1.111111E-08   1.111111E-08   1.111111E-08   1.111111E-08   1.111111E-08   1.111111E-08   1.111111E-08   1.111111E-08   1.111111E-08   1.111111E-08   1.111111E-08   1.111111E-08   1.111111E-08   1.111111E-08   1.111111E-08   1.111111E-08   1.111111E-08   1.111111E-08   1.111111E-08   1.111111E-08   1.111111E-08   1.111111E-08   1.111111E-08   1.111111E-08   1.111111E-08   1.111111E-08   1.111111E-08   1.111111E-08   1.111111E-08   1.111111E-08   1.111111E-08   1.111111E-08   1.111111E-08   1.111111E-08   1.111111E-08   1.111111E-08   1.111111E-08   1.111111E-08   1.111111E-08   1.111111E-08   1.111111E-08   1.111111E-08   1.111111E-08   1.111111E-08   1.111111E-08   1.111111E-08   1.111111E-08
   1.111111E-08   1.111111E-08   1.111111E-08   1.111111E-08   1.111111E-08   1.111111E-08   1.111111E-08   1.111111E-08   1.111111E-08   1.111111E-08   1.111111E-08   1.111111E-08   1.111111E-08   1.111111E-08   1.111111E-08   1.111111E-08   1.111111E-08   1.111111E-08   1.111111E-08   1.111111E-08   1.111111E-08   1.111111E-08   1.111111E-08   1.111111E-08   1.111111E-08   1.111111E-08   1.111111E-08   1.111111E-08   1.111111E-08   1.111111E-08   1.111111E-08   1.111111E-08   1.111111E-08   1.111111E-08   1.111111E-08   1.111111E-08   1.111111E-08   1.111111E-08   1.111111E-08   1.111111E-08   1.111111E-08   1.111111E-08   1.111111E-08   1.111111E-08   1.111111E-08   1.111111E-08   1.111111E-08   1.111111E-08
   1.111111E-08   1.111111E-08   1.111111E-08   1.111111E-08   1.111111E-08   1.111111E-08   1.111111E-08   1.111111E-08   1.111111E-08   1.111111E-08   1.111111E-08   1.111111E-08   1.111111E-08   1.111111E-08   1.111111E-08   1.111111E-08   1.111111E-08   1.111111E-08   1.111111E-08   1.111111E-08   1.111111E-08   1.111111E-08   1.111111E-08   1.111111E-08   1.111111E-08   1.111111E-08   1.111111E-08   1.111111E-08   1.111111E-08   1.111111E-08   1.111111E-08   1.111111E-08   1.111111E-08   1.111111E-08   1.111111E-08   1.111111E-08   1.111111E-08   1.111111E-08   1.111111E-08   1.111111E-08   1.111111E-08   1.111111E-08   1.111111E-08   1.111111E-08   1.111111E-08   1.111111E-08   1.111111E-08   1.111111E-08
   1.111111E-08   1.111111E-08   1.111111E-08   1.111111E-08   1.111111E-08   1.111111E-08   1.111111E-08   1.111111E-08   1.111111E-08   1.111111E-08   1.111111E-08   1.111111E-08   1.111111E-08   1.111111E-08   1.111111E-08   1.111111E-08   1.111111E-08   1.111111E-08   1.111111E-08   1.111111E-08   1.111111E-08   1.111111E-08   1.111111E-08   1.111111E-08   1.111111E-08   1.111111E-08   1.111111E-08   1.111111E-08   1.111111E-08   1.111111E-08   1.111111E-08   1.111111E-08   1.111111E-08   1.111111E-08   1.111111E-08   1.111111E-08   1.111111E-08   1.111111E-08   1.111111E-08   1.111111E-08   1.111111E-08   1.111111E-08   1.111111E-08   1.111111E-08   1.111111E-08   1.111111E-08   1.111111E-08   1.111111E-08
   1.111111E-08   1.111111E-08   1.111111E-08   1.111111E-08   1.111111E-08   1.111111E-08   1.111111E-08   1.111111E-08   1.111111E-08   1.111111E-08   1.111111E-08   1.111111E-08   1.111111E-08   1.111111E-08   1.111111E-08   1.111111E-08   1.111111E-08   1.111111E-08   1.111111E-08   1.111111E-08   1.111111E-08   1.111111E-08   1.111111E-08   1.111111E-08   1.111111E-08   1.111111E-08   1.111111E-08   1.111111E-08   1.111111E-08   1.111111E-08   1.111111E-08   1.111111E-08   1.111111E-08   1.111111E-08   1.111111E-08   1.111111E-08   1.111111E-08   1.111111E-08   1.111111E-08   1.111111E-08   1.111111E-08   1.111111E-08   1.111111E-08   1.111111E-08   1.111111E-08   1.111111E-08   1.111111E-08   1.111111E-08
   1.111111E-08   1.111111E-08   1.111111E-08   1.111111E-08   1.111111E-08   1.111111E-08   1.111111E-08   1.111111E-08   1.111111E-08   1.111111E-08   1.111111E-08   1.111111E-08   1.111111E-08   1.111111E-08   1.111111E-08   1.111111E-08   1.111111E-08   1.111111E-08   1.111111E-08   1.111111E-08   1.111111E-08   1.111111E-08   1.111111E-08   1.111111E-08   1.111111E-08   1.111111E-08   1.111111E-08   1.111111E-08   1.111111E-08   1.111111E-08   1.111111E-08   1.111111E-08   1.111111E-08   1.111111E-08   1.111111E-08   1.111111E-08   1.111111E-08   1.111111E-08   1.111111E-08   1.111111E-08   1.111111E-08   1.111111E-08   1.111111E-08   1.111111E-08   1.111111E-08   1.111111E-08   1.111111E-08   1.111111E-08
   1.111111E-08   1.111111E-08   1.111111E-08   1.111111E-08   1.111111E-08   1.111111E-08   1.111111E-08   1.111111E-08   1.111111E-08   1.111111E-08   1.111111E-08   1.111111E-08   1.111111E-08   1.111111E-08   1.111111E-08   1.111111E-08   1.111111E-08   1.111111E-08   1.111111E-08   1.111111E-08   1.111111E-08   1.111111E-08   1.111111E-08   1.111111E-08   1.111111E-08   1.111111E-08   1.111111E-08   1.111111E-08   1.111111E-08   1.111111E-08   1.111111E-08   1.111111E-08   1.111111E-08   1.111111E-08   1.111111E-08   1.111111E-08   1.111111E-08   1.111111E-08   1.111111E-08   1.111111E-08   1.111111E-08   1.111111E-08   1.111111E-08   1.111111E-08   1.111111E-08   1.111111E-08   1.111111E-08   1.111111E-08
   1.111111E-08   1.111111E-08   1.111111E-08   1.111111E-08   1.111111E-08   1.111111E-08   1.111111E-08   1.111111E-08   1.111111E-08   1.111111E-08   1.111111E-08   1.111111E-08   1.111111E-08   1.111111E-08   1.111111E-08   1.111111E-08   1.111111E-08   1.111111E-08   1.111111E-08   1.111111E-08   1.111111E-08   1.111111E-08   1.111111E-08   1.111111E-08   1.111111E-08   1.111111E-08   1.111111E-08   1.111111E-08   1.111111E-08   1.111111E-08   1.111111E-08   1.111111E-08   1.111111E-08   1.111111E-08   1.111111E-08   1.111111E-08   1.111111E-08   1.111111E-08   1.111111E-08   1.111111E-08   1.111111E-08   1.111111E-08   1.111111E-08   1.111111E-08   1.111111E-08   1.111111E-08   1.111111E-08   1.111111E-08
   1.111111E-08   1.111111E-08   1.111111E-08   1.111111E-08   1.111111E-08   1.111111E-08   1.111111E-08   1.111111E-08   1.111111E-08   1.111111E-08   1.111111E-08   1.111111E-08   1.111111E-08   1.111111E-08   1.111111E-08   1.111111E-08   1.111111E-08   1.111111E-08   1.111111E-08   1.111111E-08   1.111111E-08   1.111111E-08   1.111111E-08   1.111111E-08   1.111111E-08   1.111111E-08   1.111111E-08   1.111111E-08   1.111111E-08   1.111111E-08   1.111111E-08   1.111111E-08   1.111111E-08   1.111111E-08   1.111111E-08   1.111111E-08   1.111111E-08   1.111111E-08   1.111111E-08   1.111111E-08   1.111111E-08   1.111111E-08   1.111111E-08   1.111111E-08   1.111111E-08   1.111111E-08   1.111111E-08   1.111111E-08
   1.111111E-08   1.111111E-08   1.111111E-08   1.111111E-08   1.111111E-08   1.111111E-08   1.111111E-08   1.111111E-08   1.111111E-08   1.111111E-08   1.111111E-08   1.111111E-08   1.111111E-08   1.111111E-08   1.111111E-08   1.111111E-08   1.111111E-08   1.111111E-08   1.111111E-08   1.111111E-08   1.111111E-08   1.111111E-08   1.111111E-08   1.111111E-08   1.111111E-08   1.111111E-08   1.111111E-08   1.111111E-08   1.111111E-08   1.111111E-08   1.111111E-08   1.111111E-08   1.111111E-08   1.111111E-08   1.111111E-08   1.111111E-08   1.111111E-08   1.111111E-08   1.111111E-08   1.111111E-08   1.111111E-08   1.111111E-08   1.111111E-08   1.111111E-08   1.111111E-08   1.111111E-08   1.111111E-08   1.111111E-08
   1.111111E-08   1.111111E-08   1.111111E-08   1.111111E-08   1.111111E-08   1.111111E-08   1.111111E-08   1.111111E-08   1.111111E-08   1.111111E-08   1.111111E-08   1.111111E-08   1.111111E-08   1.111111E-08   1.111111E-08   1.111111E-08   1.111111E-08   1.111111E-08   1.111111E-08   1.111111E-08   1.111111E-08   1.111111E-08   1.111111E-08   1.111111E-08   1.111111E-08   1.111111E-08   1.111111E-08   1.111111E-08   1.111111E-08   1.111111E-08   1.111111E-08   1.111111E-08   1.111111E-08   1.111111E-08   1.111111E-08   1.111111E-08   1.111111E-08   1.111111E-08   1.111111E-08   1.111111E-08   1.111111E-08   1.111111E-08   1.111111E-08   1.111111E-08   1.111111E-08   1.111111E-08   1.111111E-08   1.111111E-08
   1.111111E-08   1.111111E-08   1.111111E-08   1.111111E-08   1.111111E-08   1.111111E-08   1.111111E-08   1.111111E-08   1.111111E-08   1.111111E-08   1.111111E-08   1.111111E-08   1.111111E-08   1.111111E-08   1.111111E-08   1.111111E-08   1.111111E-08   1.111111E-08   1.111111E-08   1.111111E-08   1.111111E-08   1.111111E-08   1.111111E-08   1.111111E-08   1.111111E-08   1.111111E-08   1.111111E-08   1.111111E-08   1.111111E-08   1.111111E-08   1.111111E-08   1.111111E-08   1.111111E-08   1.111111E-08   1.111111E-08   1.111111E-08   1.111111E-08   1.111111E-08   1.111111E-08   1.111111E-08   1.111111E-08   1.111111E-08   1.111111E-08   1.111111E-08   1.111111E-08   1.111111E-08   1.111111E-08   1.111111E-08
   1.111111E-08   1.111111E-08   1.111111E-08   1.111111E-08   1.111111E-08   1.111111E-08   1.111111E-08   1.111111E-08   1.111111E-08   1.111111E-08   1.111111E-08   1.111111E-08   1.111111E-08   1.111111E-08   1.111111E-08   1.111111E-08   1.111111E-08   1.111111E-08   1.111111E-08   1.111111E-08   1.111111E-08   1.111111E-08   1.111111E-08   1.111111E-08   1.111111E-08   1.111111E-08   1.111111E-08   1.111111E-08   1.111111E-08   1.111111E-08   1.111111E-08   1.111111E-08   1.111111E-08   1.111111E-08   1.111111E-08   1.111111E-08   1.111111E-08   1.111111E-08   1.111111E-08   1.111111E-08   1.111111E-08   1.111111E-08   1.111111E-08   1.111111E-08   1.111111E-08   1.111111E-08   1.111111E-08   1.111111E-08
   1.111111E-08   1.111111E-08   1.111111E-08   1.111111E-08   1.111111E-08   1.111111E-08   1.111111E-08   1.111111E-08   1.111111E-08   1.111111E-08   1.111111E-08   1.111111E-08   1.111111E-08   1.111111E-08   1.111111E-08   1.111111E-08   1.111111E-08   1.111111E-08   1.111111E-08   1.111111E-08   1.111111E-08   1.111111E-08   1.111111E-08   1.111111E-08   1.111111E-08   1.111111E-08   1.111111E-08   1.111111E-08   1.111111E-08   1.111111E-08   1.111111E-08   1.111111E-08   1.111111E-08   1.111111E-08   1.111111E-08   1.111111E-08   1.111111E-08   1.111111E-08   1.111111E-08   1.111111E-08   1.111111E-08   1.111111E-08   1.111111E-08   1.111111E-08   1.111111E-08   1.111111E-08   1.111111E-08   1.111111E-08
   1.111111E-08   1.111111E-08   1.111111E-08   1.111111E-08   1.111111E-08   1.111111E-08   1.111111E-08   1.111111E-08   1.111111E-08   1.111111E-08   1.111111E-08   1.111111E-08   1.111111E-08   1.111111E-08   1.111111E-08   1.111111E-08   1.111111E-08   1.111111E-08   1.111111E-08   1.111111E-08   1.111111E-08   1.111111E-08   1.111111E-08   1.111111E-08   1.111111E-08   1.111111E-08   1.111111E-08   1.111111E-08   1.111111E-08   1.111111E-08   1.111111E-08   1.111111E-08   1.111111E-08   1.111111E-08   1.111111E-08   1.111111E-08   1.111111E-08   1.111111E-08   1.111111E-08   1.111111E-08   1.111111E-08   1.111111E-08   1.111111E-08   1.111111E-08   1.111111E-08   1.111111E-08   1.111111E-08   1.111111E-08
   1.111111E-08   1.111111E-08   1.111111E-08   1.111111E-08   1.111111E-08   1.111111E-08   1.111111E-08   1.111111E-08   1.111111E-08   1.111111E-08   1.111111E-08   1.111111E-08   1.111111E-08   1.111111E-08   1.111111E-08   1.111111E-08   1.111111E-08   1.111111E-08   1.111111E-08   1.111111E-08   1.111111E-08   1.111111E-08   1.111111E-08   1.111111E-08   1.111111E-08   1.111111E-08   1.111111E-08   1.111111E-08   1.111111E-08   1.111111E-08   1.111111E-08   1.111111E-08   1.111111E-08   1.111111E-08   1.111111E-08   1.111111E-08   1.111111E-08   1.111111E-08   1.111111E-08   1.111111E-08   1.111111E-08   1.111111E-08   1.111111E-08   1.111111E-08   1.111111E-08   1.111111E-08   1.111111E-08   1.111111E-08
   1.111111E-08   1.111111E-08   1.111111E-08   1.111111E-08   1.111111E-08   1.111111E-08   1.111111E-08   1.111111E-08   1.111111E-08   1.111111E-08   1.111111E-08   1.111111E-08   1.111111E-08   1.111111E-08   1.111111E-08   1.111111E-08   1.111111E-08   1.111111E-08   1.111111E-08   1.111111E-08   1.111111E-08   1.111111E-08   1.111111E-08   1.111111E-08   1.111111E-08   1.111111E-08   1.111111E-08   1.111111E-08   1.111111E-08   1.111111E-08   1.111111E-08   1.111111E-08   1.111111E-08   1.111111E-08   1.111111E-08   1.111111E-08   1.111111E-08   1.111111E-08   1.111111E-08   1.111111E-08   1.111111E-08   1.111111E-08   1.111111E-08   1.111111E-08   1.111111E-08   1.111111E-08   1.111111E-08   1.111111E-08
   1.111111E-08   1.111111E-08   1.111111E-08   1.111111E-08   1.111111E-08   1.111111E-08   1.111111E-08   1.111111E-08   1.111111E-08   1.111111E-08   1.111111E-08   1.111111E-08   1.111111E-08   1.111111E-08   1.111111E-08   1.111111E-08   1.111111E-08   1.111111E-08   1.111111E-08   1.111111E-08   1.111111E-08   1.111111E-08   1.111111E-08   1.111111E-08   1.111111E-08   1.111111E-08   1.111111E-08   1.111111E-08   1.111111E-08   1.111111E-08   1.111111E-08   1.111111E-08   1.111111E-08   1.111111E-08   1.111111E-08   1.111111E-08   1.111111E-08   1.111111E-08   1.111111E-08   1.111111E-08   1.111111E-08   1.111111E-08   1.111111E-08   1.111111E-08   1.111111E-08   1.111111E-08   1.111111E-08   1.111111E-08
   1.111111E-08   1.111111E-08   1.111111E-08   1.111111E-08   1.111111E-08   1.111111E-08   1.111111E-08   1.111111E-08   1.111111E-08   1.111111E-08   1.111111E-08   1.111111E-08   1.111111E-08   1.111111E-08   1.111111E-08   1.111111E-08   1.111111E-08   1.111111E-08   1.111111E-08   1.111111E-08   1.111111E-08   1.111111E-08   1.111111E-08   1.111111E-08   1.111111E-08   1.111111E-08   1.111111E-08   1.111111E-08   1.111111E-08   1.111111E-08   1.111111E-08   1.111111E-08   1.111111E-08   1.111111E-08   1.111111E-08   1.111111E-08   1.111111E-08   1.111111E-08   1.111111E-08   1.111111E-08   1.111111E-08   1.111111E-08   1.111111E-08   1.111111E-08   1.111111E-08   1.111111E-08   1.111111E-08   1.111111E-08
   1.111111E-08   1.111111E-08   1.111111E-08   1.111111E-08   1.111111E-08   1.111111E-08   1.111111E-08   1.111111E-08   1.111111E-08   1.111111E-08   1.111111E-08   1.111111E-08   1.111111E-08   1.111111E-08   1.111111E-08   1.111111E-08   1.111111E-08   1.111111E-08   1.111111E-08   1.111111E-08   1.111111E-08   1.111111E-08   1.111111E-08   1.111111E-08   1.111111E-08   1.111111E-08   1.111111E-08   1.111111E-08   1.111111E-08   1.111111E-08   1.111111E-08   1.111111E-08   1.111111E-08   1.111111E-08   1.111111E-08   1.111111E-08   1.111111E-08   1.111111E-08   1.111111E-08   1.111111E-08   1.111111E-08   1.111111E-08   1.111111E-08   1.111111E-08   1.111111E-08   1.111111E-08   1.111111E-08   1.111111E-08
   1.111111E-08   1.111111E-08   1.111111E-08   1.111111E-08   1.111111E-08   1.111111E-08   1.111111E-08   1.111111E-08   1.111111E-08   1.111111E-08   1.111111E-08   1.111111E-08   1.111111E-08   1.111111E-08   1.111111E-08   1.111111E-08   1.111111E-08   1.111111E-08   1.111111E-08   1.111111E-08   1.111111E-08   1.111111E-08   1.111111E-08   1.111111E-08   1.111111E-08   1.111111E-08   1.111111E-08   1.111111E-08   1.111111E-08   1.111111E-08   1.111111E-08   1.111111E-08   1.111111E-08   1.111111E-08   1.111111E-08   1.111111E-08   1.111111E-08   1.111111E-08   1.111111E-08   1.111111E-08   1.111111E-08   1.111111E-08   1.111111E-08   1.111111E-08   1.111111E-08   1.111111E-08   1.111111E-08   1.111111E-08
   1.111111E-08   1.111111E-08   1.111111E-08   1.111111E-08   1.111111E-08   1.111111E-08   1.111111E-08   1.111111E-08   1.111111E-08   1.111111E-08   1.111111E-08   1.111111E-08   1.111111E-08   1.111111E-08   1.111111E-08   1.111111E-08   1.111111E-08   1.111111E-08   1.111111E-08   1.111111E-08   1.111111E-08   1.111111E-08   1.111111E-08   1.111111E-08   1.111111E-08   1.111111E-08   1.111111E-08   1.111111E-08   1.111111E-08   1.111111E-08   1.111111E-08   1.111111E-08   1.111111E-08   1.111111E-08   1.111111E-08   1.111111E-08   1.111111E-08   1.111111E-08   1.111111E-08   1.111111E-08   1.111111E-08   1.111111E-08   1.111111E-08   1.111111E-08   1.111111E-08   1.111111E-08   1.111111E-08   1.111111E-08
   1.111111E-08   1.111111E-08   1.111111E-08   1.111111E-08   1.111111E-08   1.111111E-08   1.111111E-08   1.111111E-08   1.111111E-08   1.111111E-08   1.111111E-08   1.111111E-08   1.111111E-08   1.111111E-08   1.111111E-08   1.111111E-08   1.111111E-08   1.111111E-08   1.111111E-08   1.111111E-08   1.111111E-08   1.111111E-08   1.111111E-08   1.111111E-08   1.111111E-08   1.111111E-08   1.111111E-08   1.111111E-08   1.111111E-08   1.111111E-08   1.111111E-08   1.111111E-08   1.111111E-08   1.111111E-08   1.111111E-08   1.111111E-08   1.111111E-08   1.111111E-08   1.111111E-08   1.111111E-08   1.111111E-08   1.111111E-08   1.111111E-08   1.111111E-08   1.111111E-08   1.111111E-08   1.111111E-08   1.111111E-08
   1.111111E-08   1.111111E-08   1.111111E-08   1.111111E-08   1.111111E-08   1.111111E-08   1.111111E-08   1.111111E-08   1.111111E-08   1.111111E-08   1.111111E-08   1.111111E-08   1.111111E-08   1.111111E-08   1.111111E-08   1.111111E-08   1.111111E-08   1.111111E-08   1.111111E-08   1.111111E-08   1.111111E-08   1.111111E-08   1.111111E-08   1.111111E-08   1.111111E-08   1.111111E-08   1.111111E-08   1.111111E-08   1.111111E-08   1.111111E-08   1.111111E-08   1.111111E-08   1.111111E-08   1.111111E-08   1.111111E-08   1.111111E-08   1.111111E-08   1.111111E-08   1.111111E-08   1.111111E-08   1.111111E-08   1.111111E-08   1.111111E-08   1.111111E-08   1.111111E-08   1.111111E-08   1.111111E-08   1.111111E-08
   1.111111E-08   1.111111E-08   1.111111E-08   1.111111E-08   1.111111E-08   1.111111E-08   1.111111E-08   1.111111E-08   1.111111E-08   1.111111E-08   1.111111E-08   1.111111E-08   1.111111E-08   1.111111E-08   1.111111E-08   1.111111E-08   1.111111E-08   1.111111E-08   1.111111E-08   1.111111E-08   1.111111E-08   1.111111E-08   1.111111E-08   1.111111E-08   1.111111E-08   1.111111E-08   1.111111E-08   1.111111E-08   1.111111E-08   1.111111E-08   1.111111E-08   1.111111E-08   1.111111E-08   1.111111E-08   1.111111E-08   1.111111E-08   1.111111E-08   1.111111E-08   1.111111E-08   1.111111E-08   1.111111E-08   1.111111E-08   1.111111E-08   1.111111E-08   1.111111E-08   1.111111E-08   1.111111E-08   1.111111E-08
   1.111111E-08   1.111111E-08   1.111111E-08   1.111111E-08   1.111111E-08   1.111111E-08   1.111111E-08   1.111111E-08   1.111111E-08   1.111111E-08   1.111111E-08   1.111111E-08   1.111111E-08   1.111111E-08   1.111111E-08   1.111111E-08   1.111111E-08   1.111111E-08   1.111111E-08   1.111111E-08   1.111111E-08   1.111111E-08   1.111111E-08   1.111111E-08   1.111111E-08   1.111111E-08   1.111111E-08   1.111111E-08   1.111111E-08   1.111111E-08   1.111111E-08   1.111111E-08   1.111111E-08   1.111111E-08   1.111111E-08   1.111111E-08   1.111111E-08   1.111111E-08   1.111111E-08   1.111111E-08   1.111111E-08   1.111111E-08   1.111111E-08   1.111111E-08   1.111111E-08   1.111111E-08   1.111111E-08   1.111111E-08
   1.111111E-08   1.111111E-08   1.111111E-08   1.111111E-08   1.111111E-08   1.111111E-08   1.111111E-08   1.111111E-08   1.111111E-08   1.111111E-08   1.111111E-08   1.111111E-08   1.111111E-08   1.111111E-08   1.111111E-08   1.111111E-08   1.111111E-08   1.111111E-08   1.111111E-08   1.111111E-08   1.111111E-08   1.111111E-08   1.111111E-08   1.111111E-08   1.111111E-08   1.111111E-08   1.111111E-08   1.111111E-08   1.111111E-08   1.111111E-08   1.111111E-08   1.111111E-08   1.111111E-08   1.111111E-08   1.111111E-08   1.111111E-08   1.111111E-08   1.111111E-08   1.111111E-08   1.111111E-08   1.111111E-08   1.111111E-08   1.111111E-08   1.111111E-08   1.111111E-08   1.111111E-08   1.111111E-08   1.111111E-08
   1.111111E-08   1.111111E-08   1.111111E-08   1.111111E-08   1.111111E-08   1.111111E-08   1.111111E-08   1.111111E-08   1.111111E-08   1.111111E-08   1.111111E-08   1.111111E-08   1.111111E-08   1.111111E-08   1.111111E-08   1.111111E-08   1.111111E-08   1.111111E-08   1.111111E-08   1.111111E-08   1.111111E-08   1.111111E-08   1.111111E-08   1.111111E-08   1.111111E-08   1.111111E-08   1.111111E-08   1.111111E-08   1.111111E-08   1.111111E-08   1.111111E-08   1.111111E-08   1.111111E-08   1.111111E-08   1.111111E-08   1.111111E-08   1.111111E-08   1.111111E-08   1.111111E-08   1.111111E-08   1.111111E-08   1.111111E-08   1.111111E-08   1.111111E-08   1.111111E-08   1.111111E-08   1.111111E-08   1.111111E-08
   1.111111E-08   1.111111E-08   1.111111E-08   1.111111E-08   1.111111E-08   1.111111E-08   1.111111E-08   1.111111E-08   1.111111E-08   1.111111E-08   1.111111E-08   1.111111E-08   1.111111E-08   1.111111E-08   1.111111E-08   1.111111E-08   1.111111E-08   1.111111E-08   1.111111E-08   1.111111E-08   1.111111E-08   1.111111E-08   1.111111E-08   1.111111E-08   1.111111E-08   1.111111E-08   1.111111E-08   1.111111E-08   1.111111E-08   1.111111E-08   1.111111E-08   1.111111E-08   1.111111E-08   1.111111E-08   1.111111E-08   1.111111E-08   1.111111E-08   1.111111E-08   1.111111E-08   1.111111E-08   1.111111E-08   1.111111E-08   1.111111E-08   1.111111E-08   1.111111E-08   1.111111E-08   1.111111E-08   1.111111E-08
   1.111111E-08   1.111111E-08   1.111111E-08   1.111111E-08   1.111111E-08   1.111111E-08   1.111111E-08   1.111111E-08   1.111111E-08   1.111111E-08   1.111111E-08   1.111111E-08   1.111111E-08   1.111111E-08   1.111111E-08   1.111111E-08   1.111111E-08   1.111111E-08   1.111111E-08   1.111111E-08   1.111111E-08   1.111111E-08   1.111111E-08   1.111111E-08   1.111111E-08   1.111111E-08   1.111111E-08   1.111111E-08   1.111111E-08   1.111111E-08   1.111111E-08   1.111111E-08   1.111111E-08   1.111111E-08   1.111111E-08   1.111111E-08   1.111111E-08   1.111111E-08   1.111111E-08   1.111111E-08   1.111111E-08   1.111111E-08   1.111111E-08   1.111111E-08   1.111111E-08   1.111111E-08   1.111111E-08   1.111111E-08
   1.111111E-08   1.111111E-08   1.111111E-08   1.111111E-08   1.111111E-08   1.111111E-08   1.111111E-08   1.111111E-08   1.111111E-08   1.111111E-08   1.111111E-08   1.111111E-08   1.111111E-08   1.111111E-08   1.111111E-08   1.111111E-08   1.111111E-08   1.111111E-08   1.111111E-08   1.111111E-08   1.111111E-08   1.111111E-08   1.111111E-08   1.111111E-08   1.111111E-08   1.111111E-08   1.111111E-08   1.111111E-08   1.111111E-08   1.111111E-08   1.111111E-08   1.111111E-08   1.111111E-08   1.111111E-08   1.111111E-08   1.111111E-08   1.111111E-08   1.111111E-08   1.111111E-08   1.111111E-08   1.111111E-08   1.111111E-08   1.111111E-08   1.111111E-08   1.111111E-08   1.111111E-08   1.111111E-08   1.111111E-08
   1.111111E-08   1.111111E-08   1.111111E-08   1.111111E-08   1.111111E-08   1.111111E-08   1.111111E-08   1.111111E-08   1.111111E-08   1.111111E-08   1.111111E-08   1.111111E-08   1.111111E-08   1.111111E-08   1.111111E-08   1.111111E-08   1.111111E-08   1.111111E-08   1.111111E-08   1.111111E-08   1.111111E-08   1.111111E-08   1.111111E-08   1.111111E-08   1.111111E-08   1.111111E-08   1.111111E-08   1.111111E-08   1.111111E-08   1.111111E-08   1.111111E-08   1.111111E-08   1.111111E-08   1.111111E-08   1.111111E-08   1.111111E-08   1.111111E-08   1.111111E-08   1.111111E-08   1.111111E-08   1.111111E-08   1.111111E-08   1.111111E-08   1.111111E-08   1.111111E-08   1.111111E-08   1.111111E-08   1.111111E-08
   1.111111E-08   1.111111E-08   1.111111E-08   1.111111E-08   1.111111E-08   1.111111E-08   1.111111E-08   1.111111E-08   1.111111E-08   1.111111E-08   1.111111E-08   1.111111E-08   1.111111E-08   1.111111E-08   1.111111E-08   1.111111E-08   1.111111E-08   1.111111E-08   1.111111E-08   1.111111E-08   1.111111E-08   1.111111E-08   1.111111E-08   1.111111E-08   1.111111E-08   1.111111E-08   1.111111E-08   1.111111E-08   1.111111E-08   1.111111E-08   1.111111E-08   1.111111E-08   1.111111E-08   1.111111E-08   1.111111E-08   1.111111E-08   1.111111E-08   1.111111E-08   1.111111E-08   1.111111E-08   1.111111E-08   1.111111E-08   1.111111E-08   1.111111E-08   1.111111E-08   1.111111E-08   1.111111E-08   1.111111E-08
   1.111111E-08   1.111111E-08   1.111111E-08   1.111111E-08   1.111111E-08   1.111111E-08   1.111111E-08   1.111111E-08   1.111111E-08   1.111111E-08   1.111111E-08   1.111111E-08   1.111111E-08   1.111111E-08   1.111111E-08   1.111111E-08   1.111111E-08   1.111111E-08   1.111111E-08   1.111111E-08   1.111111E-08   1.111111E-08   1.111111E-08   1.111111E-08   1.111111E-08   1.111111E-08   1.111111E-08   1.111111E-08   1.111111E-08   1.111111E-08   1.111111E-08   1.111111E-08   1.111111E-08   1.111111E-08   1.111111E-08   1.111111E-08   1.111111E-08   1.111111E-08   1.111111E-08   1.111111E-08   1.111111E-08   1.111111E-08   1.111111E-08   1.111111E-08   1.111111E-08   1.111111E-08   1.111111E-08   1.111111E-08
   1.111111E-08   1.111111E-08   1.111111E-08   1.111111E-08   1.111111E-08   1.111111E-08   1.111111E-08   1.111111E-08   1.111111E-08   1.111111E-08   1.111111E-08   1.111111E-08   1.111111E-08   1.111111E-08   1.111111E-08   1.111111E-08   1.111111E-08   1.111111E-08   1.111111E-08   1.111111E-08   1.111111E-08   1.111111E-08   1.111111E-08   1.111111E-08   1.111111E-08   1.111111E-08   1.111111E-08   1.111111E-08   1.111111E-08   1.111111E-08   1.111111E-08   1.111111E-08   1.111111E-08   1.111111E-08   1.111111E-08   1.111111E-08   1.111111E-08   1.111111E-08   1.111111E-08   1.111111E-08   1.111111E-08   1.111111E-08   1.111111E-08   1.111111E-08   1.111111E-08   1.111111E-08   1.111111E-08   1.111111E-08
   1.111111E-08   1.111111E-08   1.111111E-08   1.111111E-08   1.111111E-08   1.111111E-08   1.111111E-08   1.111111E-08   1.111111E-08   1.111111E-08   1.111111E-08   1.111111E-08   1.111111E-08   1.111111E-08   1.111111E-08   1.111111E-08   1.111111E-08   1.111111E-08   1.111111E-08   1.111111E-08   1.111111E-08   1.111111E-08   1.111111E-08   1.111111E-08   1.111111E-08   1.111111E-08   1.111111E-08   1.111111E-08   1.111111E-08   1.111111E-08   1.111111E-08   1.111111E-08   1.111111E-08   1.111111E-08   1.111111E-08   1.111111E-08   1.111111E-08   1.111111E-08   1.111111E-08   1.111111E-08   1.111111E-08   1.111111E-08   1.111111E-08   1.111111E-08   1.111111E-08   1.111111E-08   1.111111E-08   1.111111E-08
   1.111111E-08   1.111111E-08   1.111111E-08   1.111111E-08   1.111111E-08   1.111111E-08   1.111111E-08   1.111111E-08   1.111111E-08   1.111111E-08   1.111111E-08   1.111111E-08   1.111111E-08   1.111111E-08   1.111111E-08   1.111111E-08   1.111111E-08   1.111111E-08   1.111111E-08   1.111111E-08   1.111111E-08   1.111111E-08   1.111111E-08   1.111111E-08   1.111111E-08   1.111111E-08   1.111111E-08   1.111111E-08   1.111111E-08   1.111111E-08   1.111111E-08   1.111111E-08   1.111111E-08   1.111111E-08   1.111111E-08   1.111111E-08   1.111111E-08   1.111111E-08   1.111111E-08   1.111111E-08   1.111111E-08   1.111111E-08   1.111111E-08   1.111111E-08   1.111111E-08   1.111111E-08   1.111111E-08   1.111111E-08
   1.111111E-08   1.111111E-08   1.111111E-08   1.111111E-08   1.111111E-08   1.111111E-08   1.111111E-08   1.111111E-08   1.111111E-08   1.111111E-08   1.111111E-08   1.111111E-08   1.111111E-08   1.111111E-08   1.111111E-08   1.111111E-08   1.111111E-08   1.111111E-08   1.111111E-08   1.111111E-08   1.111111E-08   1.111111E-08   1.111111E-08   1.111111E-08   1.111111E-08   1.111111E-08   1.111111E-08   1.111111E-08   1.111111E-08   1.111111E-08   1.111111E-08   1.111111E-08   1.111111E-08   1.111111E-08   1.111111E-08   1.111111E-08   1.111111E-08   1.111111E-08   1.111111E-08   1.111111E-08   1.111111E-08   1.111111E-08   1.111111E-08   1.111111E-08   1.111111E-08   1.111111E-08   1.111111E-08   1.111111E-08
         1        -1 # Stress period 2
INTERNAL               1  (48E15.6) -1 #rech_2                        
   0.000000E+00   0.000000E+00   0.000000E+00   0.000000E+00   0.000000E+00   0.000000E+00   0.000000E+00   0.000000E+00   0.000000E+00   0.000000E+00   0.000000E+00   0.000000E+00   0.000000E+00   0.000000E+00   0.000000E+00   0.000000E+00   0.000000E+00   0.000000E+00   0.000000E+00   0.000000E+00   0.000000E+00   0.000000E+00   0.000000E+00   0.000000E+00   0.000000E+00   0.000000E+00   0.000000E+00   0.000000E+00   0.000000E+00   0.000000E+00   0.000000E+00   0.000000E+00   0.000000E+00   0.000000E+00   0.000000E+00   0.000000E+00   0.000000E+00   0.000000E+00   0.000000E+00   0.000000E+00   0.000000E+00   0.000000E+00   0.000000E+00   0.000000E+00   0.000000E+00   0.000000E+00   0.000000E+00   0.000000E+00