# OC package for MODFLOW-2005 generated by Flopy 3.5.0
HEAD PRINT FORMAT   0
HEAD SAVE UNIT    51
DRAWDOWN PRINT FORMAT   0
COMPACT BUDGET AUX

period 1 step 1 
  print head
  save head
  save budget

period 2 step 1 
  print head
  save head
  save budget

period 3 step 1 
  print head
  save head
  save budget

period 4 step 1 
  print head
  save head
  save budget

period 5 step 1 
  print head
  save head
  save budget

period 6 step 1 
  print head
  save head
  save budget

period 7 step 1 
  print head
  save head
  save budget

period 8 step 1 
  print head
  save head
  save budget

period 9 step 1 
  print head
  save head
  save budget

period 10 step 1 
  print head
  save head
  save budget

period 11 step 1 
  print head
  save head
  save budget

period 12 step 1 
  print head
  save head
  save budget

period 13 step 1 
  print head
  save head
  save budget

period 14 step 1 
  print head
  save head
  save budget

period 15 step 1 
  print head
  save head
  save budget

period 16 step 1 
  print head
  save head
  save budget

period 17 step 1 
  print head
  save head
  save budget

period 18 step 1 
  print head
  save head
  save budget

period 19 step 1 
  print head
  save head
  save budget

period 20 step 1 
  print head
  save head
  save budget

period 21 step 1 
  print head
  save head
  save budget

period 22 step 1 
  print head
  save head
  save budget

period 23 step 1 
  print head
  save head
  save budget

period 24 step 1 
  print head
  save head
  save budget

period 25 step 1 
  print head
  save head
  save budget

period 26 step 1 
  print head
  save head
  save budget

period 27 step 1 
  print head
  save head
  save budget

period 28 step 1 
  print head
  save head
  save budget

period 29 step 1 
  print head
  save head
  save budget

period 30 step 1 
  print head
  save head
  save budget

period 31 step 1 
  print head
  save head
  save budget

period 32 step 1 
  print head
  save head
  save budget

period 33 step 1 
  print head
  save head
  save budget

period 34 step 1 
  print head
  save head
  save budget

period 35 step 1 
  print head
  save head
  save budget

period 36 step 1 
  print head
  save head
  save budget

period 37 step 1 
  print head
  save head
  save budget

period 38 step 1 
  print head
  save head
  save budget

period 39 step 1 
  print head
  save head
  save budget

period 40 step 1 
  print head
  save head
  save budget

period 41 step 1 
  print head
  save head
  save budget

period 42 step 1 
  print head
  save head
  save budget

period 43 step 1 
  print head
  save head
  save budget

period 44 step 1 
  print head
  save head
  save budget

period 45 step 1 
  print head
  save head
  save budget

period 46 step 1 
  print head
  save head
  save budget

period 47 step 1 
  print head
  save head
  save budget

period 48 step 1 
  print head
  save head
  save budget

