# DIS package for  MODFLOW-2005, generated by Flopy.
         3         4         4         5         4         2
  0  0  0
CONSTANT    1.000000E+01                           #delr                          
CONSTANT    1.000000E+01                           #delc                          
INTERNAL               1   (4E15.6) -1 #model_top                     
   5.000000E+00   5.000000E+00   5.000000E+00   5.000000E+00
   5.000000E+00   5.000000E+00   5.000000E+00   5.000000E+00
   5.000000E+00   5.000000E+00   5.000000E+00   5.000000E+00
   5.000000E+00   5.000000E+00   5.000000E+00   5.000000E+00
INTERNAL               1   (4E15.6) -1 #botm layer 1                  
   4.000000E+00   4.000000E+00   4.000000E+00   4.000000E+00
   4.000000E+00   4.000000E+00   4.000000E+00   4.000000E+00
   4.000000E+00   4.000000E+00   4.000000E+00   4.000000E+00
   4.000000E+00   4.000000E+00   4.000000E+00   4.000000E+00
INTERNAL               1   (4E15.6) -1 #botm layer 2                  
   3.000000E+00   3.000000E+00   3.000000E+00   3.000000E+00
   3.000000E+00   3.000000E+00   3.000000E+00   3.000000E+00
   3.000000E+00   3.000000E+00   3.000000E+00   3.000000E+00
   3.000000E+00   3.000000E+00   3.000000E+00   3.000000E+00
INTERNAL               1   (4E15.6) -1 #botm layer 3                  
   2.000000E+00   2.000000E+00   2.000000E+00   2.000000E+00
   2.000000E+00   2.000000E+00   2.000000E+00   2.000000E+00
   2.000000E+00   2.000000E+00   2.000000E+00   2.000000E+00
   2.000000E+00   2.000000E+00   2.000000E+00   2.000000E+00
    100.000000             1  1.000000  SS 
    100.000000            10  1.000000  TR 
    100.000000            10  1.000000  TR 
    100.000000            10  1.000000  TR 
    100.000000            10  1.000000  TR 
