Please cite the paper as

Reimann, T., Rudolph, M.G., Grabow, L. and Noffz, T. (2023), CFPy—A Python Package for Pre- and Postprocessing of the Conduit Flow Process of MODFLOW. Groundwater, 61: 887-894. https://doi.org/10.1111/gwat.13331

The Manuscript is available at https://ngwa.onlinelibrary.wiley.com/doi/epdf/10.1111/gwat.13331.
