# BAS6 package for MODFLOW-2005 generated by Flopy 3.3.5
FREE
INTERNAL               1     (4I10) -1 #ibound layer 1                
        -1         1         1         1
        -1         1         1         1
        -1         1         1         1
        -1         1         1         1
INTERNAL               1     (4I10) -1 #ibound layer 2                
        -1         1         1         1
        -1         1         1         1
        -1         1         1         1
        -1         1         1         1
INTERNAL               1     (4I10) -1 #ibound layer 3                
        -1         1         1         1
        -1         1         1         1
        -1         1         1         1
        -1         1         1         1
   -999.99
INTERNAL               1   (4E15.6) -1 #strt layer 1                  
   2.000000E+01   2.000000E+01   2.000000E+01   2.000000E+01
   2.000000E+01   2.000000E+01   2.000000E+01   2.000000E+01
   2.000000E+01   2.000000E+01   2.000000E+01   2.000000E+01
   2.000000E+01   2.000000E+01   2.000000E+01   2.000000E+01
INTERNAL               1   (4E15.6) -1 #strt layer 2                  
   2.000000E+01   2.000000E+01   2.000000E+01   2.000000E+01
   2.000000E+01   2.000000E+01   2.000000E+01   2.000000E+01
   2.000000E+01   2.000000E+01   2.000000E+01   2.000000E+01
   2.000000E+01   2.000000E+01   2.000000E+01   2.000000E+01
INTERNAL               1   (4E15.6) -1 #strt layer 3                  
   2.000000E+01   2.000000E+01   2.000000E+01   2.000000E+01
   2.000000E+01   2.000000E+01   2.000000E+01   2.000000E+01
   2.000000E+01   2.000000E+01   2.000000E+01   2.000000E+01
   2.000000E+01   2.000000E+01   2.000000E+01   2.000000E+01
