# DIS package for MODFLOW-2005 generated by Flopy 3.3.6
         2         5         6         1         4         2
  0  0
CONSTANT    1.000000E+02                           #delr                          
CONSTANT    1.000000E+02                           #delc                          
INTERNAL               1   (6E15.6) -1 #model_top                     
   7.000000E+02   7.500000E+02   7.500000E+02   8.000000E+02   8.000000E+02   8.500000E+02
   7.000000E+02   7.000000E+02   7.500000E+02   7.500000E+02   8.000000E+02   8.500000E+02
   7.000000E+02   6.500000E+02   7.000000E+02   7.000000E+02   7.500000E+02   8.500000E+02
   7.000000E+02   6.500000E+02   6.500000E+02   7.000000E+02   7.500000E+02   8.500000E+02
   7.000000E+02   7.000000E+02   7.000000E+02   7.000000E+02   7.500000E+02   8.500000E+02
INTERNAL               1   (6E15.6) -1 #botm layer 1                  
   3.000000E+02   2.500000E+02   2.000000E+02   2.500000E+02   3.000000E+02   3.000000E+02
   3.000000E+02   2.000000E+02   2.500000E+02   2.500000E+02   2.000000E+02   3.000000E+02
   3.000000E+02   3.500000E+02   3.000000E+02   3.000000E+02   3.500000E+02   3.000000E+02
   3.000000E+02   3.000000E+02   3.500000E+02   3.500000E+02   3.000000E+02   3.000000E+02
   3.000000E+02   2.500000E+02   2.500000E+02   3.000000E+02   3.000000E+02   3.000000E+02
INTERNAL               1   (6E15.6) -1 #botm layer 2                  
  -1.000000E+02  -1.500000E+02  -1.000000E+02  -5.000000E+01  -1.000000E+02  -1.500000E+02
  -1.000000E+02  -1.500000E+02  -1.500000E+02  -1.000000E+02  -1.000000E+02  -1.500000E+02
  -1.000000E+02  -1.000000E+02  -5.000000E+01  -5.000000E+01  -1.000000E+02  -1.500000E+02
  -1.000000E+02  -1.000000E+02  -1.000000E+02  -1.500000E+02  -1.500000E+02  -1.500000E+02
  -1.000000E+02  -5.000000E+01  -5.000000E+01  -1.000000E+02  -5.000000E+01  -1.500000E+02
      1.000000             1  1.000000  SS 
