# BAS6 package for MODFLOW-2005 generated by Flopy 3.3.6
FREE
INTERNAL               1     (6I10) -1 #ibound layer 1                
         1         1         1         1         1        -1
         1         1         1         1         1        -1
         1         1         1         1         1        -1
         1         1         1         1         1        -1
         1         1         1         1         1        -1
INTERNAL               1     (6I10) -1 #ibound layer 2                
         1         1         1         1         1        -1
         1         1         1         1         1        -1
         1         1         1         1         1        -1
         1         1         1         1         1        -1
         1         1         1         1         1        -1
   -999.99
INTERNAL               1   (6E15.6) -1 #strt layer 1                  
   5.000000E+02   5.000000E+02   5.000000E+02   5.000000E+02   5.000000E+02   5.000000E+02
   5.000000E+02   5.000000E+02   5.000000E+02   5.000000E+02   5.000000E+02   5.000000E+02
   5.000000E+02   5.000000E+02   5.000000E+02   5.000000E+02   5.000000E+02   5.000000E+02
   5.000000E+02   5.000000E+02   5.000000E+02   5.000000E+02   5.000000E+02   5.000000E+02
   5.000000E+02   5.000000E+02   5.000000E+02   5.000000E+02   5.000000E+02   5.000000E+02
INTERNAL               1   (6E15.6) -1 #strt layer 2                  
   5.000000E+02   5.000000E+02   5.000000E+02   5.000000E+02   5.000000E+02   5.000000E+02
   5.000000E+02   5.000000E+02   5.000000E+02   5.000000E+02   5.000000E+02   5.000000E+02
   5.000000E+02   5.000000E+02   5.000000E+02   5.000000E+02   5.000000E+02   5.000000E+02
   5.000000E+02   5.000000E+02   5.000000E+02   5.000000E+02   5.000000E+02   5.000000E+02
   5.000000E+02   5.000000E+02   5.000000E+02   5.000000E+02   5.000000E+02   5.000000E+02
