# CHD package for MODFLOW-2005 generated by Flopy 3.5.0
        40
        40         0 # stress period 1
         1         1         1            10.0            10.0
         1         2         1            10.0            10.0
         1         3         1            10.0            10.0
         1         4         1            10.0            10.0
         1         5         1            10.0            10.0
         1         6         1            10.0            10.0
         1         7         1            10.0            10.0
         1         8         1            10.0            10.0
         1         9         1            10.0            10.0
         1        10         1            10.0            10.0
         1        11         1            10.0            10.0
         1        12         1            10.0            10.0
         1        13         1            10.0            10.0
         1        14         1            10.0            10.0
         1        15         1            10.0            10.0
         1        16         1            10.0            10.0
         1        17         1            10.0            10.0
         1        18         1            10.0            10.0
         1        19         1            10.0            10.0
         1        20         1            10.0            10.0
         1        21         1            10.0            10.0
         1        22         1            10.0            10.0
         1        23         1            10.0            10.0
         1        24         1            10.0            10.0
         1        25         1            10.0            10.0
         1        26         1            10.0            10.0
         1        27         1            10.0            10.0
         1        28         1            10.0            10.0
         1        29         1            10.0            10.0
         1        30         1            10.0            10.0
         1        31         1            10.0            10.0
         1        32         1            10.0            10.0
         1        33         1            10.0            10.0
         1        34         1            10.0            10.0
         1        35         1            10.0            10.0
         1        36         1            10.0            10.0
         1        37         1            10.0            10.0
         1        38         1            10.0            10.0
         1        39         1            10.0            10.0
         1        40         1            10.0            10.0
        40         0 # stress period 2
         1         1         1            10.0            10.0
         1         2         1            10.0            10.0
         1         3         1            10.0            10.0
         1         4         1            10.0            10.0
         1         5         1            10.0            10.0
         1         6         1            10.0            10.0
         1         7         1            10.0            10.0
         1         8         1            10.0            10.0
         1         9         1            10.0            10.0
         1        10         1            10.0            10.0
         1        11         1            10.0            10.0
         1        12         1            10.0            10.0
         1        13         1            10.0            10.0
         1        14         1            10.0            10.0
         1        15         1            10.0            10.0
         1        16         1            10.0            10.0
         1        17         1            10.0            10.0
         1        18         1            10.0            10.0
         1        19         1            10.0            10.0
         1        20         1            10.0            10.0
         1        21         1            10.0            10.0
         1        22         1            10.0            10.0
         1        23         1            10.0            10.0
         1        24         1            10.0            10.0
         1        25         1            10.0            10.0
         1        26         1            10.0            10.0
         1        27         1            10.0            10.0
         1        28         1            10.0            10.0
         1        29         1            10.0            10.0
         1        30         1            10.0            10.0
         1        31         1            10.0            10.0
         1        32         1            10.0            10.0
         1        33         1            10.0            10.0
         1        34         1            10.0            10.0
         1        35         1            10.0            10.0
         1        36         1            10.0            10.0
         1        37         1            10.0            10.0
         1        38         1            10.0            10.0
         1        39         1            10.0            10.0
         1        40         1            10.0            10.0
        40         0 # stress period 3
         1         1         1            10.0            10.0
         1         2         1            10.0            10.0
         1         3         1            10.0            10.0
         1         4         1            10.0            10.0
         1         5         1            10.0            10.0
         1         6         1            10.0            10.0
         1         7         1            10.0            10.0
         1         8         1            10.0            10.0
         1         9         1            10.0            10.0
         1        10         1            10.0            10.0
         1        11         1            10.0            10.0
         1        12         1            10.0            10.0
         1        13         1            10.0            10.0
         1        14         1            10.0            10.0
         1        15         1            10.0            10.0
         1        16         1            10.0            10.0
         1        17         1            10.0            10.0
         1        18         1            10.0            10.0
         1        19         1            10.0            10.0
         1        20         1            10.0            10.0
         1        21         1            10.0            10.0
         1        22         1            10.0            10.0
         1        23         1            10.0            10.0
         1        24         1            10.0            10.0
         1        25         1            10.0            10.0
         1        26         1            10.0            10.0
         1        27         1            10.0            10.0
         1        28         1            10.0            10.0
         1        29         1            10.0            10.0
         1        30         1            10.0            10.0
         1        31         1            10.0            10.0
         1        32         1            10.0            10.0
         1        33         1            10.0            10.0
         1        34         1            10.0            10.0
         1        35         1            10.0            10.0
         1        36         1            10.0            10.0
         1        37         1            10.0            10.0
         1        38         1            10.0            10.0
         1        39         1            10.0            10.0
         1        40         1            10.0            10.0
        40         0 # stress period 4
         1         1         1            10.0            10.0
         1         2         1            10.0            10.0
         1         3         1            10.0            10.0
         1         4         1            10.0            10.0
         1         5         1            10.0            10.0
         1         6         1            10.0            10.0
         1         7         1            10.0            10.0
         1         8         1            10.0            10.0
         1         9         1            10.0            10.0
         1        10         1            10.0            10.0
         1        11         1            10.0            10.0
         1        12         1            10.0            10.0
         1        13         1            10.0            10.0
         1        14         1            10.0            10.0
         1        15         1            10.0            10.0
         1        16         1            10.0            10.0
         1        17         1            10.0            10.0
         1        18         1            10.0            10.0
         1        19         1            10.0            10.0
         1        20         1            10.0            10.0
         1        21         1            10.0            10.0
         1        22         1            10.0            10.0
         1        23         1            10.0            10.0
         1        24         1            10.0            10.0
         1        25         1            10.0            10.0
         1        26         1            10.0            10.0
         1        27         1            10.0            10.0
         1        28         1            10.0            10.0
         1        29         1            10.0            10.0
         1        30         1            10.0            10.0
         1        31         1            10.0            10.0
         1        32         1            10.0            10.0
         1        33         1            10.0            10.0
         1        34         1            10.0            10.0
         1        35         1            10.0            10.0
         1        36         1            10.0            10.0
         1        37         1            10.0            10.0
         1        38         1            10.0            10.0
         1        39         1            10.0            10.0
         1        40         1            10.0            10.0
        40         0 # stress period 5
         1         1         1            10.0            10.0
         1         2         1            10.0            10.0
         1         3         1            10.0            10.0
         1         4         1            10.0            10.0
         1         5         1            10.0            10.0
         1         6         1            10.0            10.0
         1         7         1            10.0            10.0
         1         8         1            10.0            10.0
         1         9         1            10.0            10.0
         1        10         1            10.0            10.0
         1        11         1            10.0            10.0
         1        12         1            10.0            10.0
         1        13         1            10.0            10.0
         1        14         1            10.0            10.0
         1        15         1            10.0            10.0
         1        16         1            10.0            10.0
         1        17         1            10.0            10.0
         1        18         1            10.0            10.0
         1        19         1            10.0            10.0
         1        20         1            10.0            10.0
         1        21         1            10.0            10.0
         1        22         1            10.0            10.0
         1        23         1            10.0            10.0
         1        24         1            10.0            10.0
         1        25         1            10.0            10.0
         1        26         1            10.0            10.0
         1        27         1            10.0            10.0
         1        28         1            10.0            10.0
         1        29         1            10.0            10.0
         1        30         1            10.0            10.0
         1        31         1            10.0            10.0
         1        32         1            10.0            10.0
         1        33         1            10.0            10.0
         1        34         1            10.0            10.0
         1        35         1            10.0            10.0
         1        36         1            10.0            10.0
         1        37         1            10.0            10.0
         1        38         1            10.0            10.0
         1        39         1            10.0            10.0
         1        40         1            10.0            10.0
        40         0 # stress period 6
         1         1         1            10.0            10.0
         1         2         1            10.0            10.0
         1         3         1            10.0            10.0
         1         4         1            10.0            10.0
         1         5         1            10.0            10.0
         1         6         1            10.0            10.0
         1         7         1            10.0            10.0
         1         8         1            10.0            10.0
         1         9         1            10.0            10.0
         1        10         1            10.0            10.0
         1        11         1            10.0            10.0
         1        12         1            10.0            10.0
         1        13         1            10.0            10.0
         1        14         1            10.0            10.0
         1        15         1            10.0            10.0
         1        16         1            10.0            10.0
         1        17         1            10.0            10.0
         1        18         1            10.0            10.0
         1        19         1            10.0            10.0
         1        20         1            10.0            10.0
         1        21         1            10.0            10.0
         1        22         1            10.0            10.0
         1        23         1            10.0            10.0
         1        24         1            10.0            10.0
         1        25         1            10.0            10.0
         1        26         1            10.0            10.0
         1        27         1            10.0            10.0
         1        28         1            10.0            10.0
         1        29         1            10.0            10.0
         1        30         1            10.0            10.0
         1        31         1            10.0            10.0
         1        32         1            10.0            10.0
         1        33         1            10.0            10.0
         1        34         1            10.0            10.0
         1        35         1            10.0            10.0
         1        36         1            10.0            10.0
         1        37         1            10.0            10.0
         1        38         1            10.0            10.0
         1        39         1            10.0            10.0
         1        40         1            10.0            10.0
        40         0 # stress period 7
         1         1         1            10.0            10.0
         1         2         1            10.0            10.0
         1         3         1            10.0            10.0
         1         4         1            10.0            10.0
         1         5         1            10.0            10.0
         1         6         1            10.0            10.0
         1         7         1            10.0            10.0
         1         8         1            10.0            10.0
         1         9         1            10.0            10.0
         1        10         1            10.0            10.0
         1        11         1            10.0            10.0
         1        12         1            10.0            10.0
         1        13         1            10.0            10.0
         1        14         1            10.0            10.0
         1        15         1            10.0            10.0
         1        16         1            10.0            10.0
         1        17         1            10.0            10.0
         1        18         1            10.0            10.0
         1        19         1            10.0            10.0
         1        20         1            10.0            10.0
         1        21         1            10.0            10.0
         1        22         1            10.0            10.0
         1        23         1            10.0            10.0
         1        24         1            10.0            10.0
         1        25         1            10.0            10.0
         1        26         1            10.0            10.0
         1        27         1            10.0            10.0
         1        28         1            10.0            10.0
         1        29         1            10.0            10.0
         1        30         1            10.0            10.0
         1        31         1            10.0            10.0
         1        32         1            10.0            10.0
         1        33         1            10.0            10.0
         1        34         1            10.0            10.0
         1        35         1            10.0            10.0
         1        36         1            10.0            10.0
         1        37         1            10.0            10.0
         1        38         1            10.0            10.0
         1        39         1            10.0            10.0
         1        40         1            10.0            10.0
        40         0 # stress period 8
         1         1         1            10.0            10.0
         1         2         1            10.0            10.0
         1         3         1            10.0            10.0
         1         4         1            10.0            10.0
         1         5         1            10.0            10.0
         1         6         1            10.0            10.0
         1         7         1            10.0            10.0
         1         8         1            10.0            10.0
         1         9         1            10.0            10.0
         1        10         1            10.0            10.0
         1        11         1            10.0            10.0
         1        12         1            10.0            10.0
         1        13         1            10.0            10.0
         1        14         1            10.0            10.0
         1        15         1            10.0            10.0
         1        16         1            10.0            10.0
         1        17         1            10.0            10.0
         1        18         1            10.0            10.0
         1        19         1            10.0            10.0
         1        20         1            10.0            10.0
         1        21         1            10.0            10.0
         1        22         1            10.0            10.0
         1        23         1            10.0            10.0
         1        24         1            10.0            10.0
         1        25         1            10.0            10.0
         1        26         1            10.0            10.0
         1        27         1            10.0            10.0
         1        28         1            10.0            10.0
         1        29         1            10.0            10.0
         1        30         1            10.0            10.0
         1        31         1            10.0            10.0
         1        32         1            10.0            10.0
         1        33         1            10.0            10.0
         1        34         1            10.0            10.0
         1        35         1            10.0            10.0
         1        36         1            10.0            10.0
         1        37         1            10.0            10.0
         1        38         1            10.0            10.0
         1        39         1            10.0            10.0
         1        40         1            10.0            10.0
        40         0 # stress period 9
         1         1         1            10.0            10.0
         1         2         1            10.0            10.0
         1         3         1            10.0            10.0
         1         4         1            10.0            10.0
         1         5         1            10.0            10.0
         1         6         1            10.0            10.0
         1         7         1            10.0            10.0
         1         8         1            10.0            10.0
         1         9         1            10.0            10.0
         1        10         1            10.0            10.0
         1        11         1            10.0            10.0
         1        12         1            10.0            10.0
         1        13         1            10.0            10.0
         1        14         1            10.0            10.0
         1        15         1            10.0            10.0
         1        16         1            10.0            10.0
         1        17         1            10.0            10.0
         1        18         1            10.0            10.0
         1        19         1            10.0            10.0
         1        20         1            10.0            10.0
         1        21         1            10.0            10.0
         1        22         1            10.0            10.0
         1        23         1            10.0            10.0
         1        24         1            10.0            10.0
         1        25         1            10.0            10.0
         1        26         1            10.0            10.0
         1        27         1            10.0            10.0
         1        28         1            10.0            10.0
         1        29         1            10.0            10.0
         1        30         1            10.0            10.0
         1        31         1            10.0            10.0
         1        32         1            10.0            10.0
         1        33         1            10.0            10.0
         1        34         1            10.0            10.0
         1        35         1            10.0            10.0
         1        36         1            10.0            10.0
         1        37         1            10.0            10.0
         1        38         1            10.0            10.0
         1        39         1            10.0            10.0
         1        40         1            10.0            10.0
        40         0 # stress period 10
         1         1         1            10.0            10.0
         1         2         1            10.0            10.0
         1         3         1            10.0            10.0
         1         4         1            10.0            10.0
         1         5         1            10.0            10.0
         1         6         1            10.0            10.0
         1         7         1            10.0            10.0
         1         8         1            10.0            10.0
         1         9         1            10.0            10.0
         1        10         1            10.0            10.0
         1        11         1            10.0            10.0
         1        12         1            10.0            10.0
         1        13         1            10.0            10.0
         1        14         1            10.0            10.0
         1        15         1            10.0            10.0
         1        16         1            10.0            10.0
         1        17         1            10.0            10.0
         1        18         1            10.0            10.0
         1        19         1            10.0            10.0
         1        20         1            10.0            10.0
         1        21         1            10.0            10.0
         1        22         1            10.0            10.0
         1        23         1            10.0            10.0
         1        24         1            10.0            10.0
         1        25         1            10.0            10.0
         1        26         1            10.0            10.0
         1        27         1            10.0            10.0
         1        28         1            10.0            10.0
         1        29         1            10.0            10.0
         1        30         1            10.0            10.0
         1        31         1            10.0            10.0
         1        32         1            10.0            10.0
         1        33         1            10.0            10.0
         1        34         1            10.0            10.0
         1        35         1            10.0            10.0
         1        36         1            10.0            10.0
         1        37         1            10.0            10.0
         1        38         1            10.0            10.0
         1        39         1            10.0            10.0
         1        40         1            10.0            10.0
        40         0 # stress period 11
         1         1         1            10.0            10.0
         1         2         1            10.0            10.0
         1         3         1            10.0            10.0
         1         4         1            10.0            10.0
         1         5         1            10.0            10.0
         1         6         1            10.0            10.0
         1         7         1            10.0            10.0
         1         8         1            10.0            10.0
         1         9         1            10.0            10.0
         1        10         1            10.0            10.0
         1        11         1            10.0            10.0
         1        12         1            10.0            10.0
         1        13         1            10.0            10.0
         1        14         1            10.0            10.0
         1        15         1            10.0            10.0
         1        16         1            10.0            10.0
         1        17         1            10.0            10.0
         1        18         1            10.0            10.0
         1        19         1            10.0            10.0
         1        20         1            10.0            10.0
         1        21         1            10.0            10.0
         1        22         1            10.0            10.0
         1        23         1            10.0            10.0
         1        24         1            10.0            10.0
         1        25         1            10.0            10.0
         1        26         1            10.0            10.0
         1        27         1            10.0            10.0
         1        28         1            10.0            10.0
         1        29         1            10.0            10.0
         1        30         1            10.0            10.0
         1        31         1            10.0            10.0
         1        32         1            10.0            10.0
         1        33         1            10.0            10.0
         1        34         1            10.0            10.0
         1        35         1            10.0            10.0
         1        36         1            10.0            10.0
         1        37         1            10.0            10.0
         1        38         1            10.0            10.0
         1        39         1            10.0            10.0
         1        40         1            10.0            10.0
        40         0 # stress period 12
         1         1         1            10.0            10.0
         1         2         1            10.0            10.0
         1         3         1            10.0            10.0
         1         4         1            10.0            10.0
         1         5         1            10.0            10.0
         1         6         1            10.0            10.0
         1         7         1            10.0            10.0
         1         8         1            10.0            10.0
         1         9         1            10.0            10.0
         1        10         1            10.0            10.0
         1        11         1            10.0            10.0
         1        12         1            10.0            10.0
         1        13         1            10.0            10.0
         1        14         1            10.0            10.0
         1        15         1            10.0            10.0
         1        16         1            10.0            10.0
         1        17         1            10.0            10.0
         1        18         1            10.0            10.0
         1        19         1            10.0            10.0
         1        20         1            10.0            10.0
         1        21         1            10.0            10.0
         1        22         1            10.0            10.0
         1        23         1            10.0            10.0
         1        24         1            10.0            10.0
         1        25         1            10.0            10.0
         1        26         1            10.0            10.0
         1        27         1            10.0            10.0