# LPF package for MODFLOW-2005 generated by Flopy 3.5.0
        50       999         0  
         1
         0
   1.000000E+00
         0
         0
INTERNAL               1  (48E15.6) -1 #hk layer 1                    
   3.000000E-04   3.000000E-04   3.000000E-04   3.000000E-04   3.000000E-04   3.000000E-04   3.000000E-04   3.000000E-04   3.000000E-04   3.000000E-04   8.500000E-06   8.500000E-06   8.500000E-06   8.500000E-06   8.500000E-06   8.500000E-06   8.500000E-06   8.500000E-06   8.500000E-06   8.500000E-06   8.500000E-06   8.500000E-06   8.500000E-06   8.500000E-06   8.500000E-06   8.500000E-06   8.500000E-06   8.500000E-06   8.500000E-06   8.500000E-06   8.500000E-06   8.500000E-06   8.500000E-06   8.500000E-06   8.500000E-06   8.500000E-06   8.500000E-06   8.500000E-06   8.500000E-06   8.500000E-06   8.500000E-06   8.500000E-06   8.500000E-06   8.500000E-06   8.500000E-06   8.500000E-06   8.500000E-06   8.500000E-06
   3.000000E-04   3.000000E-04   3.000000E-04   3.000000E-04   3.000000E-04   3.000000E-04   3.000000E-04   3.000000E-04   3.000000E-04   3.000000E-04   8.500000E-06   8.500000E-06   8.500000E-06   8.500000E-06   8.500000E-06   8.500000E-06   8.500000E-06   8.500000E-06   8.500000E-06   8.500000E-06   8.500000E-06   8.500000E-06   8.500000E-06   8.500000E-06   8.500000E-06   8.500000E-06   8.500000E-06   8.500000E-06   8.500000E-06   8.500000E-06   8.500000E-06   8.500000E-06   8.500000E-06   8.500000E-06   8.500000E-06   8.500000E-06   8.500000E-06   8.500000E-06   8.500000E-06   8.500000E-06   8.500000E-06   8.500000E-06   8.500000E-06   8.500000E-06   8.500000E-06   8.500000E-06   8.500000E-06   8.500000E-06
   3.000000E-04   3.000000E-04   3.000000E-04   3.000000E-04   3.000000E-04   3.000000E-04   3.000000E-04   3.000000E-04   3.000000E-04   3.000000E-04   3.000000E-04   8.500000E-06   8.500000E-06   8.500000E-06   8.500000E-06   8.500000E-06   8.500000E-06   8.500000E-06   8.500000E-06   8.500000E-06   8.500000E-06   8.500000E-06   8.500000E-06   8.500000E-06   8.500000E-06   8.500000E-06   8.500000E-06   8.500000E-06   8.500000E-06   8.500000E-06   8.500000E-06   8.500000E-06   8.500000E-06   8.500000E-06   8.500000E-06   8.500000E-06   8.500000E-06   8.500000E-06   8.500000E-06   8.500000E-06   8.500000E-06   8.500000E-06   8.500000E-06   8.500000E-06   8.500000E-06   8.500000E-06   8.500000E-06   8.500000E-06
   3.000000E-04   3.000000E-04   3.000000E-04   3.000000E-04   3.000000E-04   3.000000E-04   3.000000E-04   3.000000E-04   3.000000E-04   3.000000E-04   3.000000E-04   8.500000E-06   8.500000E-06   8.500000E-06   8.500000E-06   8.500000E-06   8.500000E-06   8.500000E-06   8.500000E-06   8.500000E-06   8.500000E-06   8.500000E-06   8.500000E-06   8.500000E-06   8.500000E-06   8.500000E-06   8.500000E-06   8.500000E-06   8.500000E-06   8.500000E-06   8.500000E-06   8.500000E-06   8.500000E-06   8.500000E-06   8.500000E-06   8.500000E-06   8.500000E-06   8.500000E-06   8.500000E-06   8.500000E-06   8.500000E-06   8.500000E-06   8.500000E-06   8.500000E-06   8.500000E-06   8.500000E-06   8.500000E-06   8.500000E-06
   3.000000E-04   3.000000E-04   3.000000E-04   3.000000E-04   3.000000E-04   3.000000E-04   3.000000E-04   3.000000E-04   3.000000E-04   3.000000E-04   3.000000E-04   8.500000E-06   8.500000E-06   8.500000E-06   8.500000E-06   8.500000E-06   8.500000E-06   8.500000E-06   8.500000E-06   8.500000E-06   8.500000E-06   8.500000E-06   8.500000E-06   8.500000E-06   8.500000E-06   8.500000E-06   8.500000E-06   8.500000E-06   8.500000E-06   8.500000E-06   8.500000E-06   8.500000E-06   8.500000E-06   8.500000E-06   8.500000E-06   8.500000E-06   8.500000E-06   8.500000E-06   8.500000E-06   8.500000E-06   8.500000E-06   8.500000E-06   8.500000E-06   8.500000E-06   8.500000E-06   8.500000E-06   8.500000E-06   8.500000E-06
   3.000000E-04   3.000000E-04   3.000000E-04   3.000000E-04   3.000000E-04   3.000000E-04   3.000000E-04   3.000000E-04   3.000000E-04   3.000000E-04   3.000000E-04   3.000000E-04   8.500000E-06   8.500000E-06   8.500000E-06   8.500000E-06   8.500000E-06   8.500000E-06   8.500000E-06   8.500000E-06   8.500000E-06   8.500000E-06   8.500000E-06   8.500000E-06   8.500000E-06   8.500000E-06   8.500000E-06   8.500000E-06   8.500000E-06   8.500000E-06   8.500000E-06   8.500000E-06   8.500000E-06   8.500000E-06   8.500000E-06   8.500000E-06   8.500000E-06   8.500000E-06   8.500000E-06   8.500000E-06   8.500000E-06   8.500000E-06   8.500000E-06   8.500000E-06   8.500000E-06   8.500000E-06   8.500000E-06   8.500000E-06
   3.000000E-04   3.000000E-04   3.000000E-04   3.000000E-04   3.000000E-04   3.000000E-04   3.000000E-04   3.000000E-04   3.000000E-04   3.000000E-04   3.000000E-04   3.000000E-04   8.500000E-06   8.500000E-06   8.500000E-06   8.500000E-06   8.500000E-06   8.500000E-06   8.500000E-06   8.500000E-06   8.500000E-06   8.500000E-06   8.500000E-06   8.500000E-06   8.500000E-06   8.500000E-06   8.500000E-06   8.500000E-06   8.500000E-06   8.500000E-06   8.500000E-06   8.500000E-06   8.500000E-06   8.500000E-06   8.500000E-06   8.500000E-06   8.500000E-06   8.500000E-06   8.500000E-06   8.500000E-06   8.500000E-06   8.500000E-06   8.500000E-06   8.500000E-06   8.500000E-06   8.500000E-06   8.500000E-06   8.500000E-06
   3.000000E-04   3.000000E-04   3.000000E-04   3.000000E-04   3.000000E-04   3.000000E-04   3.000000E-04   3.000000E-04   3.000000E-04   3.000000E-04   3.000000E-04   3.000000E-04   3.000000E-04   8.500000E-06   8.500000E-06   8.500000E-06   8.500000E-06   8.500000E-06   8.500000E-06   8.500000E-06   8.500000E-06   8.500000E-06   8.500000E-06   8.500000E-06   8.500000E-06   8.500000E-06   8.500000E-06   8.500000E-06   8.500000E-06   8.500000E-06   8.500000E-06   8.500000E-06   8.500000E-06   8.500000E-06   8.500000E-06   8.500000E-06   8.500000E-06   8.500000E-06   8.500000E-06   8.500000E-06   8.500000E-06   8.500000E-06   8.500000E-06   8.500000E-06   8.500000E-06   8.500000E-06   8.500000E-06   8.500000E-06
   3.000000E-04   3.000000E-04   3.000000E-04   3.000000E-04   3.000000E-04   3.000000E-04   3.000000E-04   3.000000E-04   3.000000E-04   3.000000E-04   3.000000E-04   3.000000E-04   3.000000E-04   3.000000E-04   8.500000E-06   8.500000E-06   8.500000E-06   8.500000E-06   8.500000E-06   8.500000E-06   8.500000E-06   8.500000E-06   8.500000E-06   8.500000E-06   8.500000E-06   8.500000E-06   8.500000E-06   8.500000E-06   8.500000E-06   8.500000E-06   8.500000E-06   8.500000E-06   8.500000E-06   8.500000E-06   8.500000E-06   8.500000E-06   8.500000E-06   8.500000E-06   8.500000E-06   8.500000E-06   8.500000E-06   8.500000E-06   8.500000E-06   8.500000E-06   8.500000E-06   8.500000E-06   8.500000E-06   8.500000E-06
   3.000000E-04   3.000000E-04   3.000000E-04   3.000000E-04   3.000000E-04   3.000000E-04   3.000000E-04   3.000000E-04   3.000000E-04   3.000000E-04   3.000000E-04   3.000000E-04   3.000000E-04   3.000000E-04   8.500000E-06   8.500000E-06   8.500000E-06   8.500000E-06   8.500000E-06   8.500000E-06   8.500000E-06   8.500000E-06   8.500000E-06   8.500000E-06   8.500000E-06   8.500000E-06   8.500000E-06   8.500000E-06   8.500000E-06   8.500000E-06   8.500000E-06   8.500000E-06   8.500000E-06   8.500000E-06   8.500000E-06   8.500000E-06   8.500000E-06   8.500000E-06   8.500000E-06   8.500000E-06   8.500000E-06   8.500000E-06   8.500000E-06   8.500000E-06   8.500000E-06   8.500000E-06   8.500000E-06   8.500000E-06
   3.000000E-04   3.000000E-04   3.000000E-04   3.000000E-04   3.000000E-04   3.000000E-04   3.000000E-04   3.000000E-04   3.000000E-04   3.000000E-04   3.000000E-04   3.000000E-04   3.000000E-04   3.000000E-04   3.000000E-04   8.500000E-06   8.500000E-06   8.500000E-06   8.500000E-06   8.500000E-06   8.500000E-06   8.500000E-06   8.500000E-06   8.500000E-06   8.500000E-06   8.500000E-06   8.500000E-06   8.500000E-06   8.500000E-06   8.500000E-06   8.500000E-06   8.500000E-06   8.500000E-06   8.500000E-06   8.500000E-06   8.500000E-06   8.500000E-06   8.500000E-06   8.500000E-06   8.500000E-06   8.500000E-06   8.500000E-06   8.500000E-06   8.500000E-06   8.500000E-06   8.500000E-06   8.500000E-06   8.500000E-06
   3.000000E-04   3.000000E-04   3.000000E-04   3.000000E-04   3.000000E-04   3.000000E-04   3.000000E-04   3.000000E-04   3.000000E-04   3.000000E-04   3.000000E-04   3.000000E-04   3.000000E-04   3.000000E-04   3.000000E-04   3.000000E-04   8.500000E-06   8.500000E-06   8.500000E-06   8.500000E-06   8.500000E-06   8.500000E-06   8.500000E-06   8.500000E-06   8.500000E-06   8.500000E-06   8.500000E-06   8.500000E-06   8.500000E-06   8.500000E-06   8.500000E-06   8.500000E-06   8.500000E-06   8.500000E-06   8.500000E-06   8.500000E-06   8.500000E-06   8.500000E-06   8.500000E-06   8.500000E-06   8.500000E-06   8.500000E-06   8.500000E-06   8.500000E-06   8.500000E-06   8.500000E-06   8.500000E-06   8.500000E-06
   3.000000E-04   3.000000E-04   3.000000E-04   3.000000E-04   3.000000E-04   3.000000E-04   3.000000E-04   3.000000E-04   3.000000E-04   3.000000E-04   3.000000E-04   3.000000E-04   3.000000E-04   3.000000E-04   3.000000E-04   8.500000E-06   8.500000E-06   8.500000E-06   8.500000E-06   8.500000E-06   8.500000E-06   8.500000E-06   8.500000E-06   8.500000E-06   8.500000E-06   8.500000E-06   8.500000E-06   8.500000E-06   8.500000E-06   8.500000E-06   8.500000E-06   8.500000E-06   8.500000E-06   8.500000E-06   8.500000E-06   8.500000E-06   8.500000E-06   8.500000E-06   8.500000E-06   8.500000E-06   8.500000E-06   8.500000E-06   8.500000E-06   8.500000E-06   8.500000E-06   8.500000E-06   8.500000E-06   8.500000E-06
   3.000000E-04   3.000000E-04   3.000000E-04   3.000000E-04   3.000000E-04   3.000000E-04   3.000000E-04   3.000000E-04   3.000000E-04   3.000000E-04   3.000000E-04   3.000000E-04   3.000000E-04   3.000000E-04   3.000000E-04   8.500000E-06   8.500000E-06   8.500000E-06   8.500000E-06   8.500000E-06   8.500000E-06   8.500000E-06   8.500000E-06   8.500000E-06   8.500000E-06   8.500000E-06   8.500000E-06   8.500000E-06   8.500000E-06   8.500000E-06   8.500000E-06   8.500000E-06   8.500000E-06   8.500000E-06   8.500000E-06   8.500000E-06   8.500000E-06   8.500000E-06   8.500000E-06   8.500000E-06   8.500000E-06   8.500000E-06   8.500000E-06   8.500000E-06   8.500000E-06   8.500000E-06   8.500000E-06   8.500000E-06
   3.000000E-04   3.000000E-04   3.000000E-04   3.000000E-04   3.000000E-04   3.000000E-04   3.000000E-04   3.000000E-04   3.000000E-04   3.000000E-04   3.000000E-04   3.000000E-04   3.000000E-04   3.000000E-04   8.500000E-06   8.500000E-06   8.500000E-06   8.500000E-06   8.500000E-06   8.500000E-06   8.500000E-06   8.500000E-06   8.500000E-06   8.500000E-06   8.500000E-06   8.500000E-06   8.500000E-06   8.500000E-06   8.500000E-06   8.500000E-06   8.500000E-06   8.500000E-06   8.500000E-06   8.500000E-06   8.500000E-06   8.500000E-06   8.500000E-06   8.500000E-06   8.500000E-06   8.500000E-06   8.500000E-06   8.500000E-06   8.500000E-06   8.500000E-06   8.500000E-06   8.500000E-06   8.500000E-06   8.500000E-06
   3.000000E-04   3.000000E-04   3.000000E-04   3.000000E-04   3.000000E-04   3.000000E-04   3.000000E-04   3.000000E-04   3.000000E-04   3.000000E-04   3.000000E-04   3.000000E-04   3.000000E-04   8.500000E-06   8.500000E-06   8.500000E-06   8.500000E-06   8.500000E-06   8.500000E-06   8.500000E-06   8.500000E-06   8.500000E-06   8.500000E-06   8.500000E-06   8.500000E-06   8.500000E-06   8.500000E-06   8.500000E-06   8.500000E-06   8.500000E-06   8.500000E-06   8.500000E-06   8.500000E-06   8.500000E-06   8.500000E-06   8.500000E-06   8.500000E-06   8.500000E-06   8.500000E-06   8.500000E-06   8.500000E-06   8.500000E-06   8.500000E-06   8.500000E-06   8.500000E-06   8.500000E-06   8.500000E-06   8.500000E-06
   3.000000E-04   3.000000E-04   3.000000E-04   3.000000E-04   3.000000E-04   3.000000E-04   3.000000E-04   3.000000E-04   3.000000E-04   3.000000E-04   3.000000E-04   3.000000E-04   3.000000E-04   8.500000E-06   8.500000E-06   8.500000E-06   8.500000E-06   8.500000E-06   8.500000E-06   8.500000E-06   8.500000E-06   8.500000E-06   8.500000E-06   8.500000E-06   8.500000E-06   8.500000E-06   8.500000E-06   8.500000E-06   8.500000E-06   8.500000E-06   8.500000E-06   8.500000E-06   8.500000E-06   8.500000E-06   8.500000E-06   8.500000E-06   8.500000E-06   8.500000E-06   8.500000E-06   8.500000E-06   8.500000E-06   8.500000E-06   8.500000E-06   8.500000E-06   8.500000E-06   8.500000E-06   8.500000E-06   8.500000E-06
   3.000000E-04   3.000000E-04   3.000000E-04   3.000000E-04   3.000000E-04   3.000000E-04   3.000000E-04   3.000000E-04   3.000000E-04   3.000000E-04   3.000000E-04   3.000000E-04   3.000000E-04   8.500000E-06   8.500000E-06   8.500000E-06   8.500000E-06   8.500000E-06   8.500000E-06   8.500000E-06   8.500000E-06   8.500000E-06   8.500000E-06   8.500000E-06   8.500000E-06   8.500000E-06   8.500000E-06   8.500000E-06   8.500000E-06   8.500000E-06   8.500000E-06   8.500000E-06   8.500000E-06   8.500000E-06   8.500000E-06   8.500000E-06   8.500000E-06   8.500000E-06   8.500000E-06   8.500000E-06   8.500000E-06   8.500000E-06   8.500000E-06   8.500000E-06   8.500000E-06   8.500000E-06   8.500000E-06   8.500000E-06
   3.000000E-04   3.000000E-04   3.000000E-04   3.000000E-04   3.000000E-04   3.000000E-04   3.000000E-04   3.000000E-04   3.000000E-04   3.000000E-04   3.000000E-04   3.000000E-04   8.500000E-06   8.500000E-06   8.500000E-06   8.500000E-06   8.500000E-06   8.500000E-06   8.500000E-06   8.500000E-06   8.500000E-06   8.500000E-06   8.500000E-06   8.500000E-06   8.500000E-06   8.500000E-06   8.500000E-06   8.500000E-06   8.500000E-06   8.500000E-06   8.500000E-06   8.500000E-06   8.500000E-06   8.500000E-06   8.500000E-06   8.500000E-06   8.500000E-06   8.500000E-06   8.500000E-06   8.500000E-06   8.500000E-06   8.500000E-06   8.500000E-06   8.500000E-06   8.500000E-06   8.500000E-06   8.500000E-06   8.500000E-06
   3.000000E-04   3.000000E-04   3.000000E-04   3.000000E-04   3.000000E-04   3.000000E-04   3.000000E-04   3.000000E-04   3.000000E-04   3.000000E-04   3.000000E-04   3.000000E-04   8.500000E-06   8.500000E-06   8.500000E-06   8.500000E-06   8.500000E-06   8.500000E-06   8.500000E-06   8.500000E-06   8.500000E-06   8.500000E-06   8.500000E-06   8.500000E-06   8.500000E-06   8.500000E-06   8.500000E-06   8.500000E-06   8.500000E-06   8.500000E-06   8.500000E-06   8.500000E-06   8.500000E-06   8.500000E-06   8.500000E-06   8.500000E-06   8.500000E-06   8.500000E-06   8.500000E-06   8.500000E-06   8.500000E-06   8.500000E-06   8.500000E-06   8.500000E-06   8.500000E-06   8.500000E-06   8.500000E-06   8.500000E-06
   3.000000E-04   3.000000E-04   3.000000E-04   3.000000E-04   3.000000E-04   3.000000E-04   3.000000E-04   3.000000E-04   3.000000E-04   3.000000E-04   3.000000E-04   8.500000E-06   8.500000E-06   8.500000E-06   8.500000E-06   8.500000E-06   8.500000E-06   8.500000E-06   8.500000E-06   8.500000E-06   8.500000E-06   8.500000E-06   8.500000E-06   8.500000E-06   8.500000E-06   8.500000E-06   8.500000E-06   8.500000E-06   8.500000E-06   8.500000E-06   8.500000E-06   8.500000E-06   8.500000E-06   8.500000E-06   8.500000E-06   8.500000E-06   8.500000E-06   8.500000E-06   8.500000E-06   8.500000E-06   8.500000E-06   8.500000E-06   8.500000E-06   8.500000E-06   8.500000E-06   8.500000E-06   8.500000E-06   8.500000E-06
   3.000000E-04   3.000000E-04   3.000000E-04   3.000000E-04   3.000000E-04   3.000000E-04   3.000000E-04   3.000000E-04   3.000000E-04   3.000000E-04   3.000000E-04   8.500000E-06   8.500000E-06   8.500000E-06   8.500000E-06   8.500000E-06   8.500000E-06   8.500000E-06   8.500000E-06   8.500000E-06   8.500000E-06   8.500000E-06   8.500000E-06   8.500000E-06   8.500000E-06   8.500000E-06   8.500000E-06   8.500000E-06   8.500000E-06   8.500000E-06   8.500000E-06   8.500000E-06   8.500000E-06   8.500000E-06   8.500000E-06   8.500000E-06   8.500000E-06   8.500000E-06   8.500000E-06   8.500000E-06   8.500000E-06   8.500000E-06   8.500000E-06   8.500000E-06   8.500000E-06   8.500000E-06   8.500000E-06   8.500000E-06
   3.000000E-04   3.000000E-04   3.000000E-04   3.000000E-04   3.000000E-04   3.000000E-04   3.000000E-04   3.000000E-04   3.000000E-04   3.000000E-04   3.000000E-04   8.500000E-06   8.500000E-06   8.500000E-06   8.500000E-06   8.500000E-06   8.500000E-06   8.500000E-06   8.500000E-06   8.500000E-06   8.500000E-06   8.500000E-06   8.500000E-06   8.500000E-06   8.500000E-06   8.500000E-06   8.500000E-06   8.500000E-06   8.500000E-06   8.500000E-06   8.500000E-06   8.500000E-06   8.500000E-06   8.500000E-06   8.500000E-06   8.500000E-06   8.500000E-06   8.500000E-06   8.500000E-06   8.500000E-06   8.500000E-06   8.500000E-06   8.500000E-06   8.500000E-06   8.500000E-06   8.500000E-06   8.500000E-06   8.500000E-06
   3.000000E-04   3.000000E-04   3.000000E-04   3.000000E-04   3.000000E-04   3.000000E-04   3.000000E-04   3.000000E-04   3.000000E-04   3.000000E-04   8.500000E-06   8.500000E-06   8.500000E-06   8.500000E-06   8.500000E-06   8.500000E-06   8.500000E-06   8.500000E-06   8.500000E-06   8.500000E-06   8.500000E-06   8.500000E-06   8.500000E-06   8.500000E-06   8.500000E-06   8.500000E-06   8.500000E-06   8.500000E-06   8.500000E-06   8.500000E-06   8.500000E-06   8.500000E-06   8.500000E-06   8.500000E-06   8.500000E-06   8.500000E-06   8.500000E-06   8.500000E-06   8.500000E-06   8.500000E-06   8.500000E-06   8.500000E-06   8.500000E-06   8.500000E-06   8.500000E-06   8.500000E-06   8.500000E-06   8.500000E-06
   3.000000E-04   3.000000E-04   3.000000E-04   3.000000E-04   3.000000E-04   3.000000E-04   3.000000E-04   3.000000E-04   3.000000E-04   3.000000E-04   8.500000E-06   8.500000E-06   8.500000E-06   8.500000E-06   8.500000E-06   8.500000E-06   8.500000E-06   8.500000E-06   8.500000E-06   8.500000E-06   8.500000E-06   8.500000E-06   8.500000E-06   8.500000E-06   8.500000E-06   8.500000E-06   8.500000E-06   8.500000E-06   8.500000E-06   8.500000E-06   8.500000E-06   8.500000E-06   8.500000E-06   8.500000E-06   8.500000E-06   8.500000E-06   8.500000E-06   8.500000E-06   8.500000E-06   8.500000E-06   8.500000E-06   8.500000E-06   8.500000E-06   8.500000E-06   8.500000E-06   8.500000E-06   8.500000E-06   8.500000E-06
   3.000000E-04   3.000000E-04   3.000000E-04   3.000000E-04   3.000000E-04   3.000000E-04   3.000000E-04   3.000000E-04   3.000000E-04   3.000000E-04   8.500000E-06   8.500000E-06   8.500000E-06   8.500000E-06   8.500000E-06   8.500000E-06   8.500000E-06   8.500000E-06   8.500000E-06   8.500000E-06   8.500000E-06   8.500000E-06   8.500000E-06   8.500000E-06   8.500000E-06   8.500000E-06   8.500000E-06   8.500000E-06   8.500000E-06   8.500000E-06   8.500000E-06   8.500000E-06   8.500000E-06   8.500000E-06   8.500000E-06   8.500000E-06   8.500000E-06   8.500000E-06   8.500000E-06   8.500000E-06   8.500000E-06   8.500000E-06   8.500000E-06   8.500000E-06   8.500000E-06   8.500000E-06   8.500000E-06   8.500000E-06
   3.000000E-04   3.000000E-04   3.000000E-04   3.000000E-04   3.000000E-04   3.000000E-04   3.000000E-04   3.000000E-04   3.000000E-04   3.000000E-04   3.000000E-04   8.500000E-06   8.500000E-06   8.500000E-06   8.500000E-06   8.500000E-06   8.500000E-06   8.500000E-06   8.500000E-06   8.500000E-06   8.500000E-06   8.500000E-06   8.500000E-06   8.500000E-06   8.500000E-06   8.500000E-06   8.500000E-06   8.500000E-06   8.500000E-06   8.500000E-06   8.500000E-06   8.500000E-06   8.500000E-06   8.500000E-06   8.500000E-06   8.500000E-06   8.500000E-06   8.500000E-06   8.500000E-06   8.500000E-06   8.500000E-06   8.500000E-06   8.500000E-06   8.500000E-06   8.500000E-06   8.500000E-06   8.500000E-06   8.500000E-06
   3.000000E-04   3.000000E-04   3.000000E-04   3.000000E-04   3.000000E-04   3.000000E-04   3.000000E-04   3.000000E-04   3.000000E-04   3.000000E-04   3.000000E-04   3.000000E-04   3.000000E-04   8.500000E-06   8.500000E-06   8.500000E-06   8.500000E-06   8.500000E-06   8.500000E-06   8.500000E-06   8.500000E-06   8.500000E-06   8.500000E-06   8.500000E-06   8.500000E-06   8.500000E-06   8.500000E-06   8.500000E-06   8.500000E-06   8.500000E-06   8.500000E-06   8.500000E-06   8.500000E-06   8.500000E-06   8.500000E-06   8.500000E-06   8.500000E-06   8.500000E-06   8.500000E-06   8.500000E-06   8.500000E-06   8.500000E-06   8.500000E-06   8.500000E-06   8.500000E-06   8.500000E-06   8.500000E-06   8.500000E-06
   3.000000E-04   3.000000E-04   3.000000E-04   3.000000E-04   3.000000E-04   3.000000E-04   3.000000E-04   3.000000E-04   3.000000E-04   3.000000E-04   3.000000E-04   3.000000E-04   3.000000E-04   3.000000E-04   3.000000E-04   8.500000E-06   8.500000E-06   8.500000E-06   8.500000E-06   8.500000E-06   8.500000E-06   8.500000E-06   8.500000E-06   8.500000E-06   8.500000E-06   8.500000E-06   8.500000E-06   8.500000E-06   8.500000E-06   8.500000E-06   8.500000E-06   8.500000E-06   8.500000E-06   8.500000E-06   8.500000E-06   8.500000E-06   8.500000E-06   8.500000E-06   8.500000E-06   8.500000E-06   8.500000E-06   8.500000E-06   8.500000E-06   8.500000E-06   8.500000E-06   8.500000E-06   8.500000E-06   8.500000E-06
   3.000000E-04   3.000000E-04   3.000000E-04   3.000000E-04   3.000000E-04   3.000000E-04   3.000000E-04   3.000000E-04   3.000000E-04   3.000000E-04   3.000000E-04   3.000000E-04   3.000000E-04   3.000000E-04   3.000000E-04   3.000000E-04   8.500000E-06   8.500000E-06   8.500000E-06   8.500000E-06   8.500000E-06   8.500000E-06   8.500000E-06   8.500000E-06   8.500000E-06   8.500000E-06   8.500000E-06   8.500000E-06   8.500000E-06   8.500000E-06   8.500000E-06   8.500000E-06   8.500000E-06   8.500000E-06   8.500000E-06   8.500000E-06   8.500000E-06   8.500000E-06   8.500000E-06   8.500000E-06   8.500000E-06   8.500000E-06   8.500000E-06   8.500000E-06   8.500000E-06   8.500000E-06   8.500000E-06   8.500000E-06
   3.000000E-04   3.000000E-04   3.000000E-04   3.000000E-04   3.000000E-04   3.000000E-04   3.000000E-04   3.000000E-04   3.000000E-04   3.000000E-04   3.000000E-04   3.000000E-04   3.000000E-04   3.000000E-04   3.000000E-04   3.000000E-04   3.000000E-04   8.500000E-06   8.500000E-06   8.500000E-06   8.500000E-06   8.500000E-06   8.500000E-06   8.500000E-06   8.500000E-06   8.500000E-06   8.500000E-06   8.500000E-06   8.500000E-06   8.500000E-06   8.500000E-06   8.500000E-06   8.500000E-06   8.500000E-06   8.500000E-06   8.500000E-06   8.500000E-06   8.500000E-06   8.500000E-06   8.500000E-06   8.500000E-06   8.500000E-06   8.500000E-06   8.500000E-06   8.500000E-06   8.500000E-06   8.500000E-06   8.500000E-06
   3.000000E-04   3.000000E-04   3.000000E-04   3.000000E-04   3.000000E-04   3.000000E-04   3.000000E-04   3.000000E-04   3.000000E-04   3.000000E-04   3.000000E-04   3.000000E-04   3.000000E-04   3.000000E-04   3.000000E-04   3.000000E-04   3.000000E-04   8.500000E-06   8.500000E-06   8.500000E-06   8.500000E-06   8.500000E-06   8.500000E-06   8.500000E-06   8.500000E-06   8.500000E-06   8.500000E-06   8.500000E-06   8.500000E-06   8.500000E-06   8.500000E-06   8.500000E-06   8.500000E-06   8.500000E-06   8.500000E-06   8.500000E-06   8.500000E-06   8.500000E-06   8.500000E-06   8.500000E-06   8.500000E-06   8.500000E-06   8.500000E-06   8.500000E-06   8.500000E-06   8.500000E-06   8.500000E-06   8.500000E-06
   3.000000E-04   3.000000E-04   3.000000E-04   3.000000E-04   3.000000E-04   3.000000E-04   3.000000E-04   3.000000E-04   3.000000E-04   3.000000E-04   3.000000E-04   3.000000E-04   3.000000E-04   3.000000E-04   3.000000E-04   3.000000E-04   3.000000E-04   3.000000E-04   8.500000E-06   8.500000E-06   8.500000E-06   8.500000E-06   8.500000E-06   8.500000E-06   8.500000E-06   8.500000E-06   8.500000E-06   8.500000E-06   8.500000E-06   8.500000E-06   8.500000E-06   8.500000E-06   8.500000E-06   8.500000E-06   8.500000E-06   8.500000E-06   8.500000E-06   8.500000E-06   8.500000E-06   8.500000E-06   8.500000E-06   8.500000E-06   8.500000E-06   8.500000E-06   8.500000E-06   8.500000E-06   8.500000E-06   8.500000E-06
   3.000000E-04   3.000000E-04   3.000000E-04   3.000000E-04   3.000000E-04   3.000000E-04   3.000000E-04   3.000000E-04   3.000000E-04   3.000000E-04   3.000000E-04   3.000000E-04   3.000000E-04   3.000000E-04   3.000000E-04   3.000000E-04   3.000000E-04   3.000000E-04   8.500000E-06   8.500000E-06   8.500000E-06   8.500000E-06   8.500000E-06   8.500000E-06   8.500000E-06   8.500000E-06   8.500000E-06   8.500000E-06   8.500000E-06   8.500000E-06   8.500000E-06   8.500000E-06   8.500000E-06   8.500000E-06   8.500000E-06   8.500000E-06   8.500000E-06   8.500000E-06   8.500000E-06   8.500000E-06   8.500000E-06   8.500000E-06   8.500000E-06   8.500000E-06   8.500000E-06   8.500000E-06   8.500000E-06   8.500000E-06
   3.000000E-04   3.000000E-04   3.000000E-04   3.000000E-04   3.000000E-04   3.000000E-04   3.000000E-04   3.000000E-04   3.000000E-04   3.000000E-04   3.000000E-04   3.000000E-04   3.000000E-04   3.000000E-04   3.000000E-04   3.000000E-04   3.000000E-04   3.000000E-04   8.500000E-06   8.500000E-06   8.500000E-06   8.500000E-06   8.500000E-06   8.500000E-06   8.500000E-06   8.500000E-06   8.500000E-06   8.500000E-06   8.500000E-06   8.500000E-06   8.500000E-06   8.500000E-06   8.500000E-06   8.500000E-06   8.500000E-06   8.500000E-06   8.500000E-06   8.500000E-06   8.500000E-06   8.500000E-06   8.500000E-06   8.500000E-06   8.500000E-06   8.500000E-06   8.500000E-06   8.500000E-06   8.500000E-06   8.500000E-06
   3.000000E-04   3.000000E-04   3.000000E-04   3.000000E-04   3.000000E-04   3.000000E-04   3.000000E-04   3.000000E-04   3.000000E-04   3.000000E-04   3.000000E-04   3.000000E-04   3.000000E-04   3.000000E-04   3.000000E-04   3.000000E-04   3.000000E-04   3.000000E-04   8.500000E-06   8.500000E-06   8.500000E-06   8.500000E-06   8.500000E-06   8.500000E-06   8.500000E-06   8.500000E-06   8.500000E-06   8.500000E-06   8.500000E-06   8.500000E-06   8.500000E-06   8.500000E-06   8.500000E-06   8.500000E-06   8.500000E-06   8.500000E-06   8.500000E-06   8.500000E-06   8.500000E-06   8.500000E-06   8.500000E-06   8.500000E-06   8.500000E-06   8.500000E-06   8.500000E-06   8.500000E-06   8.500000E-06   8.500000E-06
   3.000000E-04   3.000000E-04   3.000000E-04   3.000000E-04   3.000000E-04   3.000000E-04   3.000000E-04   3.000000E-04   3.000000E-04   3.000000E-04   3.000000E-04   3.000000E-04   3.000000E-04   3.000000E-04   3.000000E-04   3.000000E-04   3.000000E-04   8.500000E-06   8.500000E-06   8.500000E-06   8.500000E-06   8.500000E-06   8.500000E-06   8.500000E-06   8.500000E-06   8.500000E-06   8.500000E-06   8.500000E-06   8.500000E-06   8.500000E-06   8.500000E-06   8.500000E-06   8.500000E-06   8.500000E-06   8.500000E-06   8.500000E-06   8.500000E-06   8.500000E-06   8.500000E-06   8.500000E-06   8.500000E-06   8.500000E-06   8.500000E-06   8.500000E-06   8.500000E-06   8.500000E-06   8.500000E-06   8.500000E-06
   3.000000E-04   3.000000E-04   3.000000E-04   3.000000E-04   3.000000E-04   3.000000E-04   3.000000E-04   3.000000E-04   3.000000E-04   3.000000E-04   3.000000E-04   3.000000E-04   3.000000E-04   3.000000E-04   3.000000E-04   3.000000E-04   3.000000E-04   8.500000E-06   8.500000E-06   8.500000E-06   8.500000E-06   8.500000E-06   8.500000E-06   8.500000E-06   8.500000E-06   8.500000E-06   8.500000E-06   8.500000E-06   8.500000E-06   8.500000E-06   8.500000E-06   8.500000E-06   8.500000E-06   8.500000E-06   8.500000E-06   8.500000E-06   8.500000E-06   8.500000E-06   8.500000E-06   8.500000E-06   8.500000E-06   8.500000E-06   8.500000E-06   8.500000E-06   8.500000E-06   8.500000E-06   8.500000E-06   8.500000E-06
   3.000000E-04   3.000000E-04   3.000000E-04   3.000000E-04   3.000000E-04   3.000000E-04   3.000000E-04   3.000000E-04   3.000000E-04   3.000000E-04   3.000000E-04   3.000000E-04   3.000000E-04   3.000000E-04   3.000000E-04   8.500000E-06   8.500000E-06   8.500000E-06   8.500000E-06   8.500000E-06   8.500000E-06   8.500000E-06   8.500000E-06   8.500000E-06   8.500000E-06   8.500000E-06   8.500000E-06   8.500000E-06   8.500000E-06   8.500000E-06   8.500000E-06   8.500000E-06   8.500000E-06   8.500000E-06   8.500000E-06   8.500000E-06   8.500000E-06   8.500000E-06   8.500000E-06   8.500000E-06   8.500000E-06   8.500000E-06   8.500000E-06   8.500000E-06   8.500000E-06   8.500000E-06   8.500000E-06   8.500000E-06
   3.000000E-04   3.000000E-04   3.000000E-04   3.000000E-04   3.000000E-04   3.000000E-04   3.000000E-04   3.000000E-04   3.000000E-04   3.000000E-04   3.000000E-04   3.000000E-04   3.000000E-04   8.500000E-06   8.500000E-06   8.500000E-06   8.500000E-06   8.500000E-06   8.500000E-06   8.500000E-06   8.500000E-06   8.500000E-06   8.500000E-06   8.500000E-06   8.500000E-06   8.500000E-06   8.500000E-06   8.500000E-06   8.500000E-06   8.500000E-06   8.500000E-06   8.500000E-06   8.500000E-06   8.500000E-06   8.500000E-06   8.500000E-06   8.500000E-06   8.500000E-06   8.500000E-06   8.500000E-06   8.500000E-06   8.500000E-06   8.500000E-06   8.500000E-06   8.500000E-06   8.500000E-06   8.500000E-06   8.500000E-06
INTERNAL               1  (48E15.6) -1 #vka1                          
   3.000000E-05   3.000000E-05   3.000000E-05   3.000000E-05   3.000000E-05   3.000000E-05   3.000000E-05   3.000000E-05   3.000000E-05   3.000000E-05   8.500000E-07   8.500000E-07   8.500000E-07   8.500000E-07   8.500000E-07   8.500000E-07   8.500000E-07   8.500000E-07   8.500000E-07   8.500000E-07   8.500000E-07   8.500000E-07   8.500000E-07   8.500000E-07   8.500000E-07   8.500000E-07   8.500000E-07   8.500000E-07   8.500000E-07   8.500000E-07   8.500000E-07   8.500000E-07   8.500000E-07   8.500000E-07   8.500000E-07   8.500000E-07   8.500000E-07   8.500000E-07   8.500000E-07   8.500000E-07   8.500000E-07   8.500000E-07   8.500000E-07   8.500000E-07   8.500000E-07   8.500000E-07   8.500000E-07   8.500000E-07