# DIS package for  MODFLOW-2005, generated by Flopy.
         1        15        35         1         1         2
  0
CONSTANT    5.000000E+01                           #delr                          
CONSTANT    5.000000E+01                           #delc                          
CONSTANT    1.000000E+03                           #model_top                     
CONSTANT    0.000000E+00                           #botm layer 1                  
      1.000000             1  1.000000  SS 
