# LPF package for  MODFLOW-2005, generated by Flopy.
        50       999         0  
         1
         0
   1.000000E+00
         0
         0
CONSTANT    1.000000E-05                           #hk layer 1                    
CONSTANT    1.000000E-05                           #vka1                          
