# RCH package for  MODFLOW-2005, generated by Flopy.
         1        50
         1        -1 # Stress period 1
CONSTANT    1.000000E-08                           #rech_1                        
